Circuit: * \\Mac\Home\Desktop\sem6\EDL\ltspice_sim\final.asc

A1: all pins shorted together -- ignoring.
WARNING: Node N006 is floating.

WARNING: Less than two connections to node N006.  This node is used by C1.
Direct Newton iteration failed to find .op point.  (Use ".option noopiter" to skip.)
Starting Gmin stepping
Gmin = 10
Gmin = 1.07374
Gmin = 0.115292
Gmin = 0.0123794
Gmin = 0.00132923
Gmin = 0.000142725
Gmin = 1.5325e-005
Gmin = 1.6455e-006
Gmin = 1.76685e-007
Gmin = 1.89714e-008
Gmin = 2.03704e-009
Gmin = 2.18725e-010
Gmin = 2.34854e-011
Gmin = 2.52173e-012
Gmin = 2.70769e-013
Gmin = 0
Gmin stepping succeeded in finding the operating point.


Date: Mon Apr 01 14:25:26 2019
Total elapsed time: 1.969 seconds.

tnom = 27
temp = 27
method = modified trap
totiter = 41974
traniter = 41550
tranpoints = 14643
accept = 10770
rejected = 3873
matrix size = 75
fillins = 32
solver = Normal
Thread vector: 60.1/30.9[2] 9.4/7.1[2] 4.8/8.0[1] 1.9/4.6[1]  2592/500
Matrix Compiler1: 6.64 KB object code size  2.9/2.1/[1.9]
Matrix Compiler2: off  [2.1]/3.0/3.0

