Circuit: * \\Mac\Home\Desktop\sem6\EDL\ltspice_sim\sir_lm.asc

WARNING: Less than two connections to node N012.  This node is used by Q:U16:1.
Early termination of direct N-R iteration.
Direct Newton iteration failed to find .op point.  (Use ".option noopiter" to skip.)
Starting Gmin stepping
Gmin = 10
vernier = 0.5
vernier = 0.25
vernier = 0.125
Gmin = 6.018
vernier = 0.0625
vernier = 0.03125
vernier = 0.015625
vernier = 0.0078125
vernier = 0.00390625
Gmin = 6.18191
vernier = 0.00195313
vernier = 0.000976563
vernier = 0.000488281
Gmin = 0
Gmin = 0
Gmin stepping failed

Starting source stepping with srcstepmethod=0
Source Step = 3.0303%
Source Step = 33.3333%
Source Step = 63.6364%
Source Step = 93.9394%
Source stepping succeeded in finding the operating point.


Date: Fri Mar 15 14:19:56 2019
Total elapsed time: 5.079 seconds.

tnom = 27
temp = 27
method = modified trap
totiter = 105754
traniter = 104032
tranpoints = 25409
accept = 18097
rejected = 7312
matrix size = 215
fillins = 939
solver = Normal
Thread vector: 15.6/12.2[2] 5.4/5.4[1] 9.3/5.5[2] 2.6/5.8[1]  2592/500
Matrix Compiler1: 66.76 KB object code size  13.6/6.9/[4.2]
Matrix Compiler2: 34.74 KB object code size  7.0/7.8/[3.4]

