Circuit: * \\Mac\Home\Desktop\sem6\EDL\ltspice_sim\Draft1.asc

WARNING: Specified period is not longer than the sum of Trise, Tfall, and Ton for v7.  Increasing period to 1e-006
Limiting rise time of source v7 to 1.90582e-022
Limiting fall time of source v7 to 1.90582e-022
WARNING: Less than two connections to node N008.  This node is used by V6.
WARNING: Less than two connections to node K.  This node is used by V8.
WARNING: Less than two connections to node J.  This node is used by V9.
WARNING: Less than two connections to node CLK.  This node is used by V10.
Early termination of direct N-R iteration.
Direct Newton iteration failed to find .op point.  (Use ".option noopiter" to skip.)
Starting Gmin stepping
Gmin = 10
vernier = 0.5
vernier = 0.25
vernier = 0.125
Gmin = 5.5165
vernier = 0.0625
vernier = 0.03125
vernier = 0.015625
vernier = 0.0078125
Gmin = 5.49501
vernier = 0.00390625
vernier = 0.00195313
vernier = 0.000976563
vernier = 0.000488281
Gmin = 5.50104
Gmin = 0
Gmin stepping failed

Starting source stepping with srcstepmethod=0
Source Step = 3.0303%
Source Step = 7.38636%
Source Step = 9.2803%
Source Step = 11.1742%
Source Step = 13.0682%
Source Step = 14.9621%
vernier = 0.09375
Source Step = 17.4242%
Source Step = 20.2652%
Source Step = 23.1061%
Source Step = 25.947%
Source Step = 28.7879%
vernier = 0.140625
Source Step = 32.339%
Source Step = 36.6004%
Source Step = 40.8617%
Source Step = 45.1231%
Source Step = 49.3845%
vernier = 0.210938
Source Step = 54.4981%
Source Step = 60.8902%
Source Step = 67.2822%
Source Step = 73.6742%
Source Step = 80.0663%
vernier = 0.316406
Source Step = 87.4171%
Source Step = 97.0052%
Source stepping succeeded in finding the operating point.

Heightened Def Con from 2e-006 ++++++++++++++++++++++++++++++++++++++++++++++++++Fatal Error: Analysis:  Time step too small; time = 2e-006, timestep = 1.25e-019: trouble with and-instance a3

