Circuit: * \\Mac\Home\Desktop\sem6\EDL\ltspice_sim\Draft4.asc

Fatal Error: This circuit does not have a conduction path to ground!
   Please flag a node as ground.
