Circuit: * \\Mac\Home\Desktop\sem6\EDL\ltspice_sim\sir_lm - Copy.asc

WARNING: Specified period is not longer than the sum of Trise, Tfall, and Ton for v6.  Increasing period to 1e-006
Limiting rise time of source v6 to 1.90582e-022
Limiting fall time of source v6 to 1.90582e-022
WARNING: Less than two connections to node N004.  This node is used by V6.
Early termination of direct N-R iteration.
Direct Newton iteration failed to find .op point.  (Use ".option noopiter" to skip.)
Starting Gmin stepping
Gmin = 10
vernier = 0.5
vernier = 0.25
vernier = 0.125
Gmin = 4.96485
vernier = 0.0625
vernier = 0.03125
vernier = 0.015625
vernier = 0.0078125
vernier = 0.00390625
Gmin = 5.08031
vernier = 0.00195313
vernier = 0.000976563
vernier = 0.000488281
Gmin = 0
Gmin stepping failed

Starting source stepping with srcstepmethod=0
Source Step = 3.0303%
Source Step = 33.3333%
Source Step = 63.6364%
Source Step = 93.9394%
Source stepping succeeded in finding the operating point.

Heightened Def Con from 5.30024e-005 to 5.30054e-005
Heightened Def Con from 5.30197e-005 to 5.30208e-005
Heightened Def Con from 5.38917e-005 to 5.38928e-005
Heightened Def Con from 5.3894e-005 to 5.3896e-005
Heightened Def Con from 5.38963e-005 to 5.38974e-005
Heightened Def Con from 5.4053e-005 to 5.4055e-005
Heightened Def Con from 5.40599e-005 to 5.40619e-005
Heightened Def Con from 5.40653e-005 to 5.40656e-005
Heightened Def Con from 6.08443e-005 to 6.08443e-005
Heightened Def Con from 6.08443e-005 to 6.08443e-005
Heightened Def Con from 6.08443e-005 to 6.08453e-005
Heightened Def Con from 6.08453e-005 to 6.08453e-005
Heightened Def Con from 6.08453e-005 to 6.08473e-005
Heightened Def Con from 6.08473e-005 to 6.08483e-005
Heightened Def Con from 6.085e-005 to 6.085e-005
Heightened Def Con from 6.085e-005 to 6.08501e-005
Heightened Def Con from 6.08501e-005 to 6.08501e-005
Heightened Def Con from 6.08501e-005 to 6.08501e-005
Heightened Def Con from 6.08501e-005 to 6.08501e-005
Heightened Def Con from 6.08501e-005 to 6.08501e-005
Heightened Def Con from 6.08501e-005 to 6.08501e-005
Heightened Def Con from 6.08501e-005 to 6.08501e-005
Heightened Def Con from 6.08502e-005 to 6.08512e-005
Heightened Def Con from 6.08512e-005 to 6.08512e-005
Heightened Def Con from 6.08512e-005 to 6.08512e-005
Heightened Def Con from 6.08512e-005 to 6.08512e-005
Heightened Def Con from 6.08512e-005 to 6.08532e-005
Heightened Def Con from 6.0854e-005 to 6.0854e-005
Heightened Def Con from 6.0854e-005 +to 6.08551e-005
Heightened Def Con from 6.08551e-005 to 6.08551e-005
Heightened Def Con from 6.08551e-005 to 6.08552e-005
Heightened Def Con from 6.08552e-005 to 6.08552e-005
Heightened Def Con from 6.08552e-005 to 6.08553e-005
Heightened Def Con from 6.08553e-005 to 6.08553e-005
Heightened Def Con from 6.08553e-005 to 6.08573e-005
Heightened Def Con from 6.08574e-005 to 6.08574e-005
Heightened Def Con from 6.08574e-005 to 6.08576e-005
Heightened Def Con from 6.08577e-005 to 6.08597e-005
Heightened Def Con from 6.08599e-005 to 6.08599e-005
Heightened Def Con from 6.08599e-005 to 6.08599e-005
Heightened Def Con from 6.08599e-005 to 6.08599e-005
Heightened Def Con from 6.08599e-005 to 6.0861e-005
Heightened Def Con from 6.08614e-005 to 6.08625e-005
Heightened Def Con from 6.08625e-005 to 6.08627e-005
Heightened Def Con from 6.0863e-005 +to 6.08631e-005
Heightened Def Con from 6.08631e-005 to 6.08631e-005
Heightened Def Con from 6.08631e-005 to 6.08631e-005
Heightened Def Con from 6.08632e-005 to 6.08632e-005
Heightened Def Con from 6.08632e-005 to 6.08642e-005
Heightened Def Con from 6.08642e-005 to 6.08642e-005
Heightened Def Con from 6.08642e-005 to 6.08642e-005
Heightened Def Con from 6.08642e-005 to 6.08642e-005
Heightened Def Con from 6.08642e-005 to 6.08653e-005
Heightened Def Con from 6.08653e-005 to 6.08664e-005
Heightened Def Con from 6.08665e-005 to 6.08675e-005
Heightened Def Con from 6.08675e-005 to 6.08685e-005
Heightened Def Con from 6.08685e-005 to 6.08686e-005
Heightened Def Con from 6.08686e-005 to 6.08696e-005
Heightened Def Con from 6.08696e-005 to 6.08706e-005
Heightened Def Con from 6.08706e-005 to 6.08718e-005
Heightened Def Con from 6.08718e-005 to 6.08718e-005
Heightened Def Con from 6.08718e-005 to 6.08719e-005
Heightened Def Con from 6.08719e-005 to 6.08719e-005
Heightened Def Con from 6.08719e-005 to 6.0872e-005
Heightened Def Con from 6.0872e-005 to 6.0872e-005
Heightened Def Con from 6.0872e-005 to 6.0874e-005
Heightened Def Con from 6.08743e-005 to 6.08763e-005
Heightened Def Con from 6.08763e-005 to 6.08774e-005
Heightened Def Con from 6.08791e-005 to 6.08794e-005
Heightened Def Con from 6.08794e-005 to 6.08794e-005
Heightened Def Con from 6.08794e-005 to 6.08814e-005
Heightened Def Con from 6.08814e-005 to 6.08814e-005
Heightened Def Con from 6.08814e-005 to 6.08814e-005
Heightened Def Con from 6.08814e-005 to 6.08814e-005
Heightened Def Con from 6.08814e-005 to 6.08814e-005
Heightened Def Con from 6.08814e-005 to 6.08824e-005
Heightened Def Con from 6.08824e-005 to 6.08825e-005
Heightened Def Con from 6.08825e-005 to 6.08835e-005
Heightened Def Con from 6.08835e-005 to 6.08836e-005
Heightened Def Con from 6.08836e-005 to 6.08838e-005
Heightened Def Con from 6.08838e-005 to 6.08839e-005
Heightened Def Con from 6.08839e-005 to 6.08841e-005
Heightened Def Con from 6.08844e-005 to 6.08845e-005
Heightened Def Con from 6.08845e-005 to 6.08845e-005
Heightened Def Con from 6.08845e-005 to 6.08846e-005
Heightened Def Con from 6.08847e-005 +to 6.08847e-005
Heightened Def Con from 6.08847e-005 to 6.08847e-005
Heightened Def Con from 6.08847e-005 to 6.08848e-005
Heightened Def Con from 6.08848e-005 to 6.08848e-005
Heightened Def Con from 6.08848e-005 to 6.08849e-005
Heightened Def Con from 6.08849e-005 to 6.08849e-005
Heightened Def Con from 6.08849e-005 +to 6.0885e-005
Heightened Def Con from 6.08851e-005 to 6.08861e-005
Heightened Def Con from 6.08863e-005 to 6.08863e-005
Heightened Def Con from 6.08863e-005 to 6.08863e-005
Heightened Def Con from 6.08864e-005 to 6.08864e-005
Heightened Def Con from 6.08864e-005 +to 6.08865e-005
Heightened Def Con from 6.08865e-005 +to 6.08866e-005
Heightened Def Con from 6.08878e-005 to 6.08878e-005
Heightened Def Con from 6.08878e-005 to 6.0888e-005
Heightened Def Con from 6.0888e-005 to 6.0888e-005
Heightened Def Con from 6.0888e-005 to 6.0888e-005
Heightened Def Con from 6.0888e-005 to 6.08881e-005
Heightened Def Con from 6.08881e-005 to 6.08891e-005
Heightened Def Con from 6.08891e-005 to 6.08891e-005
Heightened Def Con from 6.08891e-005 to 6.08891e-005
Heightened Def Con from 6.08891e-005 to 6.08901e-005
Heightened Def Con from 6.08901e-005 to 6.08901e-005
Heightened Def Con from 6.08901e-005 to 6.08901e-005
Heightened Def Con from 6.08901e-005 to 6.08912e-005
Heightened Def Con from 6.08912e-005 to 6.08914e-005
Heightened Def Con from 6.08914e-005 to 6.08924e-005
Heightened Def Con from 6.08924e-005 to 6.08924e-005
Heightened Def Con from 6.08924e-005 to 6.08924e-005
Heightened Def Con from 6.08924e-005 to 6.08924e-005
Heightened Def Con from 6.08924e-005 to 6.08924e-005
Heightened Def Con from 6.08924e-005 +to 6.08927e-005
Heightened Def Con from 6.08964e-005 to 6.08964e-005
Heightened Def Con from 6.08964e-005 to 6.08966e-005
Heightened Def Con from 6.08966e-005 to 6.08976e-005
Heightened Def Con from 6.08976e-005 to 6.08996e-005
Heightened Def Con from 6.09004e-005 to 6.09004e-005
Heightened Def Con from 6.09004e-005 to 6.09004e-005
Heightened Def Con from 6.09004e-005 to 6.09015e-005
Heightened Def Con from 6.09015e-005 to 6.09015e-005
Heightened Def Con from 6.09015e-005 ++to 6.09025e-005
Heightened Def Con from 6.09025e-005 to 6.09025e-005
Heightened Def Con from 6.09025e-005 to 6.09045e-005
Heightened Def Con from 6.09045e-005 to 6.09045e-005
Heightened Def Con from 6.09045e-005 to 6.09055e-005
Heightened Def Con from 6.09055e-005 to 6.09065e-005
Heightened Def Con from 6.09065e-005 to 6.09065e-005
Heightened Def Con from 6.09065e-005 to 6.09066e-005
Heightened Def Con from 6.09066e-005 to 6.09067e-005
Heightened Def Con from 6.09067e-005 to 6.09067e-005
Heightened Def Con from 6.09067e-005 to 6.09067e-005
Heightened Def Con from 6.09067e-005 to 6.09067e-005
Heightened Def Con from 6.09067e-005 to 6.09077e-005
Heightened Def Con from 6.09078e-005 to 6.09078e-005
Heightened Def Con from 6.09078e-005 to 6.09098e-005
Heightened Def Con from 6.09098e-005 to 6.09109e-005
Heightened Def Con from 6.09116e-005 +to 6.09116e-005
Heightened Def Con from 6.09116e-005 to 6.09116e-005
Heightened Def Con from 6.09117e-005 to 6.09117e-005
Heightened Def Con from 6.09117e-005 to 6.09117e-005
Heightened Def Con from 6.09117e-005 to 6.09118e-005
Heightened Def Con from 6.09118e-005 to 6.09118e-005
Heightened Def Con from 6.09118e-005 to 6.09138e-005
Heightened Def Con from 6.09138e-005 to 6.09138e-005
Heightened Def Con from 6.09138e-005 to 6.09138e-005
Heightened Def Con from 6.09138e-005 to 6.09158e-005
Heightened Def Con from 6.09159e-005 to 6.09169e-005
Heightened Def Con from 6.09169e-005 to 6.0917e-005
Heightened Def Con from 6.0917e-005 to 6.09182e-005
Heightened Def Con from 6.09182e-005 to 6.09183e-005
Heightened Def Con from 6.09183e-005 to 6.09184e-005
Heightened Def Con from 6.09184e-005 to 6.09194e-005
Heightened Def Con from 6.09194e-005 to 6.09194e-005
Heightened Def Con from 6.09194e-005 to 6.09205e-005
Heightened Def Con from 6.09205e-005 to 6.09225e-005
Heightened Def Con from 6.09227e-005 to 6.09227e-005
Heightened Def Con from 6.09227e-005 +to 6.09227e-005
Heightened Def Con from 6.09228e-005 +to 6.09228e-005
Heightened Def Con from 6.09229e-005 to 6.09229e-005
Heightened Def Con from 6.09229e-005 to 6.09231e-005
Heightened Def Con from 6.09231e-005 to 6.09231e-005
Heightened Def Con from 6.09231e-005 to 6.09241e-005
Heightened Def Con from 6.09241e-005 to 6.09253e-005
Heightened Def Con from 6.09262e-005 to 6.09273e-005
Heightened Def Con from 6.09273e-005 to 6.09273e-005
Heightened Def Con from 6.09273e-005 to 6.09274e-005
Heightened Def Con from 6.09277e-005 to 6.09277e-005
Heightened Def Con from 6.09277e-005 to 6.09297e-005
Heightened Def Con from 6.09297e-005 to 6.09297e-005
Heightened Def Con from 6.09297e-005 to 6.09297e-005
Heightened Def Con from 6.09297e-005 to 6.09297e-005
Heightened Def Con from 6.09297e-005 to 6.09297e-005
Heightened Def Con from 6.09297e-005 to 6.09297e-005
Heightened Def Con from 6.09297e-005 to 6.09307e-005
Heightened Def Con from 6.09307e-005 +to 6.09317e-005
Heightened Def Con from 6.09317e-005 to 6.09317e-005
Heightened Def Con from 6.09317e-005 to 6.09319e-005
Heightened Def Con from 6.09319e-005 to 6.09319e-005
Heightened Def Con from 6.09319e-005 to 6.0933e-005
Heightened Def Con from 6.09331e-005 to 6.09331e-005
Heightened Def Con from 6.09331e-005 to 6.09333e-005
Heightened Def Con from 6.09333e-005 to 6.09334e-005
Heightened Def Con from 6.09337e-005 to 6.09337e-005
Heightened Def Con from 6.09338e-005 to 6.09349e-005
Heightened Def Con from 6.09349e-005 to 6.09349e-005
Heightened Def Con from 6.09349e-005 to 6.09359e-005
Heightened Def Con from 6.09359e-005 to 6.09359e-005
Heightened Def Con from 6.09359e-005 to 6.0936e-005
Heightened Def Con from 6.0936e-005 to 6.0936e-005
Heightened Def Con from 6.0936e-005 to 6.0937e-005
Heightened Def Con from 6.0937e-005 to 6.09371e-005
Heightened Def Con from 6.09371e-005 to 6.09382e-005
Heightened Def Con from 6.09382e-005 to 6.09382e-005
Heightened Def Con from 6.09382e-005 to 6.09382e-005
Heightened Def Con from 6.09382e-005 to 6.09382e-005
Heightened Def Con from 6.09382e-005 to 6.09383e-005
Heightened Def Con from 6.09383e-005 to 6.09384e-005
Heightened Def Con from 6.09384e-005 to 6.09404e-005
Heightened Def Con from 6.09406e-005 to 6.09407e-005
Heightened Def Con from 6.09408e-005 to 6.09408e-005
Heightened Def Con from 6.09408e-005 +to 6.09418e-005
Heightened Def Con from 6.09418e-005 to 6.09419e-005
Heightened Def Con from 6.09419e-005 to 6.09419e-005
Heightened Def Con from 6.09419e-005 to 6.09419e-005
Heightened Def Con from 6.09419e-005 to 6.09419e-005
Heightened Def Con from 6.09419e-005 to 6.09419e-005
Heightened Def Con from 6.09419e-005 to 6.09431e-005
Heightened Def Con from 6.09431e-005 to 6.09431e-005
Heightened Def Con from 6.09431e-005 to 6.09433e-005
Heightened Def Con from 6.09433e-005 to 6.09453e-005
Heightened Def Con from 6.09456e-005 to 6.09466e-005
Heightened Def Con from 6.09466e-005 to 6.09466e-005
Heightened Def Con from 6.09466e-005 to 6.09477e-005
Heightened Def Con from 6.09477e-005 to 6.0948e-005
Heightened Def Con from 6.0948e-005 to 6.09481e-005
Heightened Def Con from 6.09481e-005 to 6.09482e-005
Heightened Def Con from 6.09484e-005 to 6.09486e-005
Heightened Def Con from 6.09486e-005 to 6.09486e-005
Heightened Def Con from 6.09486e-005 to 6.09486e-005
Heightened Def Con from 6.09486e-005 to 6.09487e-005
Heightened Def Con from 6.09487e-005 to 6.09487e-005
Heightened Def Con from 6.09487e-005 to 6.09497e-005
Heightened Def Con from 6.095e-005 to 6.095e-005
Heightened Def Con from 6.095e-005 to 6.0951e-005
Heightened Def Con from 6.0951e-005 to 6.0952e-005
Heightened Def Con from 6.0952e-005 to 6.0952e-005
Heightened Def Con from 6.0952e-005 to 6.0952e-005
Heightened Def Con from 6.09521e-005 to 6.09531e-005
Heightened Def Con from 6.09531e-005 to 6.09531e-005
Heightened Def Con from 6.09531e-005 to 6.09532e-005
Heightened Def Con from 6.09532e-005 to 6.09532e-005
Heightened Def Con from 6.09532e-005 +to 6.09542e-005
Heightened Def Con from 6.09542e-005 to 6.09542e-005
Heightened Def Con from 6.09542e-005 to 6.09553e-005
Heightened Def Con from 6.09553e-005 to 6.09563e-005
Heightened Def Con from 6.09563e-005 to 6.09565e-005
Heightened Def Con from 6.09565e-005 to 6.09565e-005
Heightened Def Con from 6.09565e-005 to 6.09565e-005
Heightened Def Con from 6.09565e-005 to 6.09585e-005
Heightened Def Con from 6.0961e-005 to 6.0961e-005
Heightened Def Con from 6.0961e-005 to 6.0963e-005
Heightened Def Con from 6.09632e-005 to 6.09632e-005
Heightened Def Con from 6.09632e-005 to 6.09632e-005
Heightened Def Con from 6.09632e-005 to 6.09632e-005
Heightened Def Con from 6.09632e-005 to 6.09633e-005
Heightened Def Con from 6.09633e-005 to 6.09633e-005
Heightened Def Con from 6.09633e-005 to 6.09633e-005
Heightened Def Con from 6.09633e-005 to 6.09633e-005
Heightened Def Con from 6.09633e-005 to 6.09634e-005
Heightened Def Con from 6.09634e-005 to 6.09635e-005
Heightened Def Con from 6.09635e-005 +to 6.09645e-005
Heightened Def Con from 6.09645e-005 to 6.09645e-005
Heightened Def Con from 6.09645e-005 to 6.09645e-005
Heightened Def Con from 6.09645e-005 to 6.09645e-005
Heightened Def Con from 6.09645e-005 to 6.09645e-005
Heightened Def Con from 6.09645e-005 to 6.09645e-005
Heightened Def Con from 6.09645e-005 to 6.09645e-005
Heightened Def Con from 6.09645e-005 to 6.09645e-005
Heightened Def Con from 6.09645e-005 to 6.09657e-005
Heightened Def Con from 6.09657e-005 to 6.09667e-005
Heightened Def Con from 6.09667e-005 to 6.09677e-005
Heightened Def Con from 6.09677e-005 to 6.09677e-005
Heightened Def Con from 6.09677e-005 to 6.09687e-005
Heightened Def Con from 6.09687e-005 to 6.09688e-005
Heightened Def Con from 6.09689e-005 to 6.09699e-005
Heightened Def Con from 6.09699e-005 to 6.097e-005
Heightened Def Con from 6.097e-005 to 6.0972e-005
Heightened Def Con from 6.0972e-005 to 6.0972e-005
Heightened Def Con from 6.0972e-005 to 6.0973e-005
Heightened Def Con from 6.0973e-005 to 6.09731e-005
Heightened Def Con from 6.09731e-005 to 6.09734e-005
Heightened Def Con from 6.09734e-005 to 6.09734e-005
Heightened Def Con from 6.09734e-005 to 6.09734e-005
Heightened Def Con from 6.09734e-005 to 6.09736e-005
Heightened Def Con from 6.09736e-005 to 6.09746e-005
Heightened Def Con from 6.09746e-005 to 6.09746e-005
Heightened Def Con from 6.09746e-005 to 6.09747e-005
Heightened Def Con from 6.09747e-005 to 6.09747e-005
Heightened Def Con from 6.09747e-005 to 6.09747e-005
Heightened Def Con from 6.09747e-005 to 6.09757e-005
Heightened Def Con from 6.09757e-005 to 6.09767e-005
Heightened Def Con from 6.09767e-005 +to 6.09777e-005
Heightened Def Con from 6.09777e-005 to 6.09778e-005
Heightened Def Con from 6.09778e-005 to 6.09778e-005
Heightened Def Con from 6.09779e-005 to 6.09779e-005
Heightened Def Con from 6.09779e-005 to 6.09779e-005
Heightened Def Con from 6.09779e-005 +to 6.0979e-005
Heightened Def Con from 6.0979e-005 to 6.0979e-005
Heightened Def Con from 6.0979e-005 to 6.09791e-005
Heightened Def Con from 6.09791e-005 to 6.09791e-005
Heightened Def Con from 6.09791e-005 to 6.09801e-005
Heightened Def Con from 6.09801e-005 +to 6.09802e-005
Heightened Def Con from 6.09803e-005 to 6.09823e-005
Heightened Def Con from 6.09844e-005 to 6.09864e-005
Heightened Def Con from 6.09864e-005 to 6.09864e-005
Heightened Def Con from 6.09864e-005 to 6.09884e-005
Heightened Def Con from 6.09884e-005 to 6.09884e-005
Heightened Def Con from 6.09884e-005 to 6.09896e-005
Heightened Def Con from 6.09896e-005 to 6.09896e-005
Heightened Def Con from 6.09896e-005 to 6.09898e-005
Heightened Def Con from 6.09906e-005 to 6.09906e-005
Heightened Def Con from 6.09906e-005 to 6.09906e-005
Heightened Def Con from 6.09906e-005 to 6.09926e-005
Heightened Def Con from 6.09929e-005 to 6.0993e-005
Heightened Def Con from 6.0993e-005 to 6.0993e-005
Heightened Def Con from 6.0993e-005 +to 6.0993e-005
Heightened Def Con from 6.0993e-005 to 6.0993e-005
Heightened Def Con from 6.09931e-005 to 6.09931e-005
Heightened Def Con from 6.09931e-005 to 6.09931e-005
Heightened Def Con from 6.09931e-005 to 6.09942e-005
Heightened Def Con from 6.09943e-005 to 6.09943e-005
Heightened Def Con from 6.09943e-005 to 6.09953e-005
Heightened Def Con from 6.09953e-005 to 6.09954e-005
Heightened Def Con from 6.09954e-005 to 6.09956e-005
Heightened Def Con from 6.09956e-005 to 6.09956e-005
Heightened Def Con from 6.09956e-005 +to 6.09956e-005
Heightened Def Con from 6.09956e-005 to 6.09956e-005
Heightened Def Con from 6.09956e-005 to 6.09956e-005
Heightened Def Con from 6.09956e-005 to 6.09956e-005
Heightened Def Con from 6.09956e-005 to 6.09956e-005
Heightened Def Con from 6.09956e-005 to 6.09976e-005
Heightened Def Con from 6.09979e-005 to 6.0999e-005
Heightened Def Con from 6.09993e-005 to 6.10003e-005
Heightened Def Con from 6.10003e-005 to 6.10004e-005
Heightened Def Con from 6.10004e-005 to 6.10005e-005
Heightened Def Con from 6.10005e-005 to 6.10016e-005
Heightened Def Con from 6.10016e-005 to 6.10036e-005
Heightened Def Con from 6.10176e-005 to 6.10176e-005
Heightened Def Con from 6.10176e-005 to 6.10176e-005
Heightened Def Con from 6.10179e-005 to 6.1018e-005
Heightened Def Con from 6.1018e-005 to 6.10181e-005
Heightened Def Con from 6.10184e-005 to 6.10184e-005
Heightened Def Con from 6.10184e-005 to 6.10184e-005
Heightened Def Con from 6.10184e-005 to 6.10185e-005
Heightened Def Con from 6.10185e-005 to 6.10186e-005
Heightened Def Con from 6.10186e-005 to 6.10186e-005
Heightened Def Con from 6.10186e-005 to 6.10186e-005
Heightened Def Con from 6.10186e-005 to 6.10189e-005
Heightened Def Con from 6.10189e-005 to 6.10189e-005
Heightened Def Con from 6.10189e-005 to 6.10191e-005
Heightened Def Con from 6.10191e-005 to 6.10211e-005
Heightened Def Con from 6.10211e-005 to 6.10221e-005
Heightened Def Con from 6.10221e-005 to 6.10221e-005
Heightened Def Con from 6.10221e-005 to 6.10231e-005
Heightened Def Con from 6.10231e-005 to 6.10243e-005
Heightened Def Con from 6.10245e-005 to 6.10265e-005
Heightened Def Con from 6.10265e-005 to 6.10267e-005
Heightened Def Con from 6.10267e-005 to 6.10268e-005
Heightened Def Con from 6.10268e-005 to 6.10268e-005
Heightened Def Con from 6.10268e-005 to 6.10278e-005
Heightened Def Con from 6.10278e-005 to 6.10288e-005
Heightened Def Con from 6.10288e-005 to 6.10288e-005
Heightened Def Con from 6.10288e-005 to 6.10288e-005
Heightened Def Con from 6.10288e-005 to 6.10298e-005
Heightened Def Con from 6.10298e-005 to 6.10308e-005
Heightened Def Con from 6.10308e-005 to 6.10308e-005
Heightened Def Con from 6.10308e-005 to 6.10308e-005
Heightened Def Con from 6.10308e-005 to 6.10328e-005
Heightened Def Con from 6.10331e-005 to 6.10332e-005
Heightened Def Con from 6.10332e-005 to 6.10352e-005
Heightened Def Con from 6.10379e-005 to 6.10379e-005
Heightened Def Con from 6.10379e-005 to 6.10379e-005
Heightened Def Con from 6.10379e-005 to 6.10381e-005
Heightened Def Con from 6.10384e-005 to 6.10384e-005
Heightened Def Con from 6.10385e-005 to 6.10385e-005
Heightened Def Con from 6.10385e-005 to 6.10385e-005
Heightened Def Con from 6.10385e-005 to 6.10385e-005
Heightened Def Con from 6.10385e-005 to 6.10385e-005
Heightened Def Con from 6.10385e-005 to 6.10388e-005
Heightened Def Con from 6.10388e-005 to 6.10399e-005
Heightened Def Con from 6.104e-005 +to 6.10401e-005
Heightened Def Con from 6.10401e-005 to 6.10401e-005
Heightened Def Con from 6.10401e-005 to 6.10401e-005
Heightened Def Con from 6.10401e-005 to 6.10411e-005
Heightened Def Con from 6.10411e-005 to 6.10412e-005
Heightened Def Con from 6.10412e-005 to 6.10412e-005
Heightened Def Con from 6.10412e-005 to 6.10422e-005
Heightened Def Con from 6.10422e-005 to 6.10432e-005
Heightened Def Con from 6.10432e-005 to 6.10432e-005
Heightened Def Con from 6.10432e-005 to 6.10442e-005
Heightened Def Con from 6.10442e-005 to 6.10452e-005
Heightened Def Con from 6.10452e-005 to 6.10452e-005
Heightened Def Con from 6.10452e-005 to 6.10452e-005
Heightened Def Con from 6.10452e-005 to 6.10462e-005
Heightened Def Con from 6.10462e-005 to 6.10464e-005
Heightened Def Con from 6.10464e-005 to 6.10475e-005
Heightened Def Con from 6.10475e-005 to 6.10476e-005
Heightened Def Con from 6.10476e-005 to 6.10476e-005
Heightened Def Con from 6.10476e-005 to 6.10476e-005
Heightened Def Con from 6.10476e-005 to 6.10486e-005
Heightened Def Con from 6.10486e-005 +to 6.10488e-005
Heightened Def Con from 6.10489e-005 to 6.10499e-005
Heightened Def Con from 6.10499e-005 to 6.10499e-005
Heightened Def Con from 6.10499e-005 to 6.1051e-005
Heightened Def Con from 6.10518e-005 to 6.10518e-005
Heightened Def Con from 6.10518e-005 to 6.10538e-005
Heightened Def Con from 6.10538e-005 to 6.10538e-005
Heightened Def Con from 6.10538e-005 to 6.10538e-005
Heightened Def Con from 6.10538e-005 to 6.10538e-005
Heightened Def Con from 6.10538e-005 to 6.10539e-005
Heightened Def Con from 6.10539e-005 to 6.10559e-005
Heightened Def Con from 6.10629e-005 to 6.1063e-005
Heightened Def Con from 6.1063e-005 to 6.1063e-005
Heightened Def Con from 6.1063e-005 to 6.1063e-005
Heightened Def Con from 6.1063e-005 to 6.10633e-005
Heightened Def Con from 6.10658e-005 to 6.10659e-005
Heightened Def Con from 6.10659e-005 to 6.10659e-005
Heightened Def Con from 6.10659e-005 to 6.10669e-005
Heightened Def Con from 6.10669e-005 to 6.10679e-005
Heightened Def Con from 6.1068e-005 to 6.1068e-005
Heightened Def Con from 6.1068e-005 to 6.107e-005
Heightened Def Con from 6.10701e-005 to 6.10701e-005
Heightened Def Con from 6.10701e-005 to 6.10702e-005
Heightened Def Con from 6.10702e-005 to 6.10702e-005
Heightened Def Con from 6.10702e-005 to 6.10702e-005
Heightened Def Con from 6.10702e-005 to 6.10712e-005
Heightened Def Con from 6.10712e-005 to 6.10712e-005
Heightened Def Con from 6.10712e-005 to 6.10712e-005
Heightened Def Con from 6.10712e-005 to 6.10713e-005
Heightened Def Con from 6.10713e-005 to 6.10715e-005
Heightened Def Con from 6.10715e-005 to 6.10715e-005
Heightened Def Con from 6.10715e-005 to 6.10726e-005
Heightened Def Con from 6.10729e-005 to 6.10729e-005
Heightened Def Con from 6.10729e-005 to 6.10739e-005
Heightened Def Con from 6.10739e-005 to 6.10739e-005
Heightened Def Con from 6.10739e-005 to 6.10739e-005
Heightened Def Con from 6.10739e-005 +to 6.10749e-005
Heightened Def Con from 6.10809e-005 to 6.10829e-005
Heightened Def Con from 6.1148e-005 to 6.11482e-005
Heightened Def Con from 6.11482e-005 to 6.11492e-005
Heightened Def Con from 6.11495e-005 to 6.11495e-005
Heightened Def Con from 6.11495e-005 to 6.11506e-005
Heightened Def Con from 6.11511e-005 to 6.11512e-005
Heightened Def Con from 6.11512e-005 to 6.11513e-005
Heightened Def Con from 6.11513e-005 to 6.11514e-005
Heightened Def Con from 6.11514e-005 to 6.11524e-005
Heightened Def Con from 6.11524e-005 to 6.11526e-005
Heightened Def Con from 6.11526e-005 to 6.11526e-005
Heightened Def Con from 6.11526e-005 to 6.11526e-005
Heightened Def Con from 6.11526e-005 to 6.11526e-005
Heightened Def Con from 6.11526e-005 to 6.11527e-005
Heightened Def Con from 6.11527e-005 to 6.11529e-005
Heightened Def Con from 6.11529e-005 to 6.11529e-005
Heightened Def Con from 6.11529e-005 to 6.11529e-005
Heightened Def Con from 6.11529e-005 to 6.11529e-005
Heightened Def Con from 6.11529e-005 to 6.1154e-005
Heightened Def Con from 6.11541e-005 to 6.11541e-005
Heightened Def Con from 6.11541e-005 to 6.11541e-005
Heightened Def Con from 6.11541e-005 to 6.11541e-005
Heightened Def Con from 6.11541e-005 to 6.11544e-005
Heightened Def Con from 6.11551e-005 to 6.11561e-005
Heightened Def Con from 6.11562e-005 to 6.11562e-005
Heightened Def Con from 6.11562e-005 to 6.11573e-005
Heightened Def Con from 6.11573e-005 to 6.11583e-005
Heightened Def Con from 6.11583e-005 to 6.11594e-005
Heightened Def Con from 6.11594e-005 to 6.11597e-005
Heightened Def Con from 6.11599e-005 to 6.11599e-005
Heightened Def Con from 6.11599e-005 to 6.11602e-005
Heightened Def Con from 6.11602e-005 to 6.11602e-005
Heightened Def Con from 6.11602e-005 +to 6.11604e-005
Heightened Def Con from 6.11604e-005 to 6.11604e-005
Heightened Def Con from 6.11604e-005 to 6.11604e-005
Heightened Def Con from 6.11604e-005 to 6.11604e-005
Heightened Def Con from 6.11604e-005 to 6.11624e-005
Heightened Def Con from 6.11697e-005 to 6.11698e-005
Heightened Def Con from 6.11698e-005 to 6.11698e-005
Heightened Def Con from 6.11698e-005 to 6.11698e-005
Heightened Def Con from 6.11698e-005 to 6.11698e-005
Heightened Def Con from 6.11698e-005 to 6.117e-005
Heightened Def Con from 6.11701e-005 to 6.11721e-005
Heightened Def Con from 6.11724e-005 to 6.11734e-005
Heightened Def Con from 6.11734e-005 to 6.11734e-005
Heightened Def Con from 6.11734e-005 to 6.11734e-005
Heightened Def Con from 6.11734e-005 to 6.11744e-005
Heightened Def Con from 6.11744e-005 to 6.11744e-005
Heightened Def Con from 6.11744e-005 to 6.11754e-005
Heightened Def Con from 6.11754e-005 to 6.11754e-005
Heightened Def Con from 6.11754e-005 to 6.11764e-005
Heightened Def Con from 6.11764e-005 to 6.11764e-005
Heightened Def Con from 6.11764e-005 to 6.11764e-005
Heightened Def Con from 6.11764e-005 to 6.11774e-005
Heightened Def Con from 6.11774e-005 to 6.11784e-005
Heightened Def Con from 6.11784e-005 to 6.11794e-005
Heightened Def Con from 6.11794e-005 to 6.11794e-005
Heightened Def Con from 6.11794e-005 to 6.11804e-005
Heightened Def Con from 6.11804e-005 to 6.11804e-005
Heightened Def Con from 6.11804e-005 to 6.11807e-005
Heightened Def Con from 6.11812e-005 to 6.11813e-005
Heightened Def Con from 6.11813e-005 to 6.11814e-005
Heightened Def Con from 6.11817e-005 to 6.11819e-005
Heightened Def Con from 6.11819e-005 to 6.11819e-005
Heightened Def Con from 6.11819e-005 to 6.11819e-005
Heightened Def Con from 6.11819e-005 to 6.11821e-005
Heightened Def Con from 6.11821e-005 +to 6.11831e-005
Heightened Def Con from 6.11833e-005 to 6.11843e-005
Heightened Def Con from 6.11843e-005 to 6.11843e-005
Heightened Def Con from 6.11843e-005 to 6.11853e-005
Heightened Def Con from 6.11853e-005 to 6.11863e-005
Heightened Def Con from 6.11863e-005 to 6.11863e-005
Heightened Def Con from 6.11863e-005 to 6.11873e-005
Heightened Def Con from 6.11873e-005 to 6.11883e-005
Heightened Def Con from 6.11883e-005 to 6.11883e-005
Heightened Def Con from 6.11883e-005 to 6.11884e-005
Heightened Def Con from 6.11884e-005 to 6.11884e-005
Heightened Def Con from 6.11884e-005 to 6.11886e-005
Heightened Def Con from 6.11889e-005 to 6.11889e-005
Heightened Def Con from 6.11889e-005 to 6.11889e-005
Heightened Def Con from 6.11889e-005 to 6.11889e-005
Heightened Def Con from 6.11889e-005 to 6.11889e-005
Heightened Def Con from 6.11889e-005 to 6.11899e-005
Heightened Def Con from 6.11899e-005 to 6.11899e-005
Heightened Def Con from 6.11899e-005 to 6.11899e-005
Heightened Def Con from 6.11899e-005 to 6.11899e-005
Heightened Def Con from 6.11899e-005 to 6.11911e-005
Heightened Def Con from 6.11911e-005 to 6.11911e-005
Heightened Def Con from 6.11911e-005 to 6.11911e-005
Heightened Def Con from 6.11911e-005 to 6.11911e-005
Heightened Def Con from 6.11911e-005 to 6.11911e-005
Heightened Def Con from 6.11912e-005 to 6.11913e-005
Heightened Def Con from 6.11913e-005 to 6.11914e-005
Heightened Def Con from 6.11914e-005 to 6.11914e-005
Heightened Def Con from 6.11914e-005 to 6.11916e-005
Heightened Def Con from 6.11916e-005 to 6.11917e-005
Heightened Def Con from 6.11917e-005 to 6.11917e-005
Heightened Def Con from 6.11917e-005 to 6.11927e-005
Heightened Def Con from 6.11927e-005 to 6.11937e-005
Heightened Def Con from 6.11937e-005 to 6.11947e-005
Heightened Def Con from 6.11947e-005 to 6.11957e-005
Heightened Def Con from 6.11957e-005 to 6.11968e-005
Heightened Def Con from 6.11969e-005 to 6.11969e-005
Heightened Def Con from 6.11969e-005 to 6.11969e-005
Heightened Def Con from 6.11969e-005 to 6.11979e-005
Heightened Def Con from 6.11979e-005 to 6.11981e-005
Heightened Def Con from 6.11981e-005 to 6.11981e-005
Heightened Def Con from 6.11981e-005 to 6.11982e-005
Heightened Def Con from 6.11982e-005 to 6.12002e-005
Heightened Def Con from 6.12009e-005 to 6.12011e-005
Heightened Def Con from 6.12011e-005 to 6.12022e-005
Heightened Def Con from 6.12023e-005 to 6.12024e-005
Heightened Def Con from 6.12024e-005 to 6.12044e-005
Heightened Def Con from 6.12044e-005 to 6.12045e-005
Heightened Def Con from 6.12045e-005 to 6.12048e-005
Heightened Def Con from 6.12048e-005 to 6.12048e-005
Heightened Def Con from 6.12048e-005 to 6.12058e-005
Heightened Def Con from 6.12058e-005 to 6.12059e-005
Heightened Def Con from 6.12059e-005 to 6.12059e-005
Heightened Def Con from 6.12059e-005 to 6.12079e-005
Heightened Def Con from 6.12079e-005 to 6.12089e-005
Heightened Def Con from 6.12089e-005 to 6.12089e-005
Heightened Def Con from 6.12089e-005 to 6.1209e-005
Heightened Def Con from 6.1209e-005 to 6.1209e-005
Heightened Def Con from 6.1209e-005 +to 6.121e-005
Heightened Def Con from 6.12102e-005 to 6.12103e-005
Heightened Def Con from 6.12103e-005 to 6.12103e-005
Heightened Def Con from 6.12103e-005 to 6.12103e-005
Heightened Def Con from 6.12103e-005 to 6.12103e-005
Heightened Def Con from 6.12103e-005 to 6.12103e-005
Heightened Def Con from 6.12103e-005 +to 6.12113e-005
Heightened Def Con from 6.1212e-005 to 6.1213e-005
Heightened Def Con from 6.12131e-005 to 6.12132e-005
Heightened Def Con from 6.12132e-005 +to 6.12133e-005
Heightened Def Con from 6.12133e-005 to 6.12153e-005
Heightened Def Con from 6.12178e-005 to 6.12198e-005
Heightened Def Con from 6.12208e-005 to 6.12228e-005
Heightened Def Con from 6.12231e-005 to 6.12231e-005
Heightened Def Con from 6.12231e-005 to 6.12242e-005
Heightened Def Con from 6.12242e-005 to 6.12242e-005
Heightened Def Con from 6.12242e-005 to 6.12242e-005
Heightened Def Con from 6.12242e-005 to 6.12242e-005
Heightened Def Con from 6.12242e-005 to 6.12242e-005
Heightened Def Con from 6.12242e-005 to 6.12242e-005
Heightened Def Con from 6.12242e-005 to 6.12262e-005
Heightened Def Con from 6.1227e-005 to 6.1227e-005
Heightened Def Con from 6.1227e-005 to 6.1229e-005
Heightened Def Con from 6.1229e-005 to 6.1229e-005
Heightened Def Con from 6.1229e-005 to 6.1229e-005
Heightened Def Con from 6.1229e-005 to 6.12292e-005
Heightened Def Con from 6.12292e-005 to 6.12294e-005
Heightened Def Con from 6.12294e-005 to 6.12294e-005
Heightened Def Con from 6.12294e-005 to 6.12295e-005
Heightened Def Con from 6.12295e-005 to 6.12296e-005
Heightened Def Con from 6.12296e-005 to 6.12297e-005
Heightened Def Con from 6.12297e-005 to 6.12297e-005
Heightened Def Con from 6.12297e-005 to 6.12308e-005
Heightened Def Con from 6.12312e-005 to 6.12312e-005
Heightened Def Con from 6.12312e-005 to 6.12312e-005
Heightened Def Con from 6.12312e-005 to 6.12312e-005
Heightened Def Con from 6.12312e-005 to 6.12332e-005
Heightened Def Con from 6.12332e-005 to 6.12332e-005
Heightened Def Con from 6.12332e-005 to 6.12352e-005
Heightened Def Con from 6.1238e-005 to 6.12382e-005
Heightened Def Con from 6.12382e-005 to 6.12383e-005
Heightened Def Con from 6.12384e-005 to 6.12384e-005
Heightened Def Con from 6.12384e-005 to 6.12395e-005
Heightened Def Con from 6.12398e-005 to 6.12418e-005
Heightened Def Con from 6.12419e-005 to 6.12419e-005
Heightened Def Con from 6.12419e-005 to 6.12429e-005
Heightened Def Con from 6.12429e-005 to 6.12429e-005
Heightened Def Con from 6.12429e-005 to 6.12429e-005
Heightened Def Con from 6.12429e-005 to 6.12439e-005
Heightened Def Con from 6.12439e-005 to 6.1245e-005
Heightened Def Con from 6.12451e-005 to 6.12451e-005
Heightened Def Con from 6.12451e-005 to 6.12452e-005
Heightened Def Con from 6.12452e-005 to 6.12453e-005
Heightened Def Con from 6.12454e-005 to 6.12454e-005
Heightened Def Con from 6.12454e-005 to 6.12456e-005
Heightened Def Con from 6.12456e-005 to 6.12456e-005
Heightened Def Con from 6.12456e-005 to 6.12476e-005
Heightened Def Con from 6.12477e-005 to 6.12477e-005
Heightened Def Con from 6.12477e-005 to 6.12477e-005
Heightened Def Con from 6.12477e-005 to 6.12487e-005
Heightened Def Con from 6.12487e-005 to 6.12487e-005
Heightened Def Con from 6.12487e-005 to 6.12488e-005
Heightened Def Con from 6.12489e-005 +to 6.125e-005
Heightened Def Con from 6.12642e-005 to 6.12652e-005
Heightened Def Con from 6.12652e-005 to 6.12652e-005
Heightened Def Con from 6.12652e-005 to 6.12662e-005
Heightened Def Con from 6.12662e-005 to 6.12674e-005
Heightened Def Con from 6.12674e-005 +to 6.12685e-005
Heightened Def Con from 6.12692e-005 to 6.12702e-005
Heightened Def Con from 6.12702e-005 to 6.12722e-005
Heightened Def Con from 6.12723e-005 to 6.12723e-005
Heightened Def Con from 6.12723e-005 to 6.12724e-005
Heightened Def Con from 6.12725e-005 to 6.12725e-005
Heightened Def Con from 6.12725e-005 to 6.12725e-005
Heightened Def Con from 6.12725e-005 to 6.12736e-005
Heightened Def Con from 6.12738e-005 to 6.12738e-005
Heightened Def Con from 6.12738e-005 to 6.12749e-005
Heightened Def Con from 6.12749e-005 to 6.12749e-005
Heightened Def Con from 6.12749e-005 to 6.12749e-005
Heightened Def Con from 6.12749e-005 to 6.12759e-005
Heightened Def Con from 6.12759e-005 to 6.12759e-005
Heightened Def Con from 6.12759e-005 to 6.1276e-005
Heightened Def Con from 6.1276e-005 to 6.1276e-005
Heightened Def Con from 6.1276e-005 to 6.1277e-005
Heightened Def Con from 6.1277e-005 to 6.12782e-005
Heightened Def Con from 6.12782e-005 to 6.12782e-005
Heightened Def Con from 6.12782e-005 to 6.12783e-005
Heightened Def Con from 6.12783e-005 to 6.12803e-005
Heightened Def Con from 6.12823e-005 to 6.12823e-005
Heightened Def Con from 6.12823e-005 to 6.12823e-005
Heightened Def Con from 6.12824e-005 to 6.12825e-005
Heightened Def Con from 6.12825e-005 to 6.12825e-005
Heightened Def Con from 6.12825e-005 to 6.12826e-005
Heightened Def Con from 6.12826e-005 to 6.12836e-005
Heightened Def Con from 6.12837e-005 to 6.12848e-005
Heightened Def Con from 6.12848e-005 to 6.12849e-005
Heightened Def Con from 6.12849e-005 to 6.12849e-005
Heightened Def Con from 6.12849e-005 to 6.12869e-005
Heightened Def Con from 6.12929e-005 to 6.12929e-005
Heightened Def Con from 6.12929e-005 to 6.1293e-005
Heightened Def Con from 6.1293e-005 to 6.1295e-005
Heightened Def Con from 6.1295e-005 to 6.1297e-005
Heightened Def Con from 6.1299e-005 to 6.1299e-005
Heightened Def Con from 6.1299e-005 to 6.1299e-005
Heightened Def Con from 6.1299e-005 to 6.12991e-005
Heightened Def Con from 6.12991e-005 to 6.12991e-005
Heightened Def Con from 6.12991e-005 to 6.12991e-005
Heightened Def Con from 6.12991e-005 to 6.12991e-005
Heightened Def Con from 6.12991e-005 to 6.12991e-005
Heightened Def Con from 6.12991e-005 to 6.12991e-005
Heightened Def Con from 6.12991e-005 +to 6.12993e-005
Heightened Def Con from 6.12993e-005 to 6.13003e-005
Heightened Def Con from 6.13003e-005 to 6.13013e-005
Heightened Def Con from 6.13013e-005 to 6.13033e-005
Heightened Def Con from 6.13058e-005 to 6.13058e-005
Heightened Def Con from 6.13058e-005 to 6.13068e-005
Heightened Def Con from 6.13068e-005 to 6.13079e-005
Heightened Def Con from 6.13101e-005 to 6.13121e-005
Heightened Def Con from 6.13121e-005 to 6.13123e-005
Heightened Def Con from 6.13123e-005 to 6.13143e-005
Heightened Def Con from 6.13144e-005 to 6.13144e-005
Heightened Def Con from 6.13144e-005 to 6.13144e-005
Heightened Def Con from 6.13144e-005 to 6.13146e-005
Heightened Def Con from 6.13146e-005 to 6.13146e-005
Heightened Def Con from 6.13146e-005 to 6.13146e-005
Heightened Def Con from 6.13146e-005 to 6.13146e-005
Heightened Def Con from 6.13146e-005 to 6.13147e-005
Heightened Def Con from 6.13147e-005 to 6.13149e-005
Heightened Def Con from 6.13149e-005 to 6.13151e-005
Heightened Def Con from 6.13151e-005 to 6.13161e-005
Heightened Def Con from 6.13162e-005 to 6.13162e-005
Heightened Def Con from 6.13162e-005 to 6.13164e-005
Heightened Def Con from 6.13169e-005 to 6.13169e-005
Heightened Def Con from 6.13169e-005 to 6.13169e-005
Heightened Def Con from 6.13169e-005 to 6.13189e-005
Heightened Def Con from 6.13209e-005 to 6.13209e-005
Heightened Def Con from 6.13209e-005 to 6.13209e-005
Heightened Def Con from 6.13209e-005 to 6.13219e-005
Heightened Def Con from 6.13219e-005 to 6.13219e-005
Heightened Def Con from 6.13219e-005 to 6.1322e-005
Heightened Def Con from 6.1322e-005 to 6.1323e-005
Heightened Def Con from 6.1323e-005 to 6.1323e-005
Heightened Def Con from 6.1323e-005 to 6.1323e-005
Heightened Def Con from 6.1323e-005 to 6.1324e-005
Heightened Def Con from 6.13241e-005 to 6.13241e-005
Heightened Def Con from 6.13241e-005 to 6.13241e-005
Heightened Def Con from 6.13241e-005 +to 6.13242e-005
Heightened Def Con from 6.13242e-005 to 6.13242e-005
Heightened Def Con from 6.13242e-005 to 6.13253e-005
Heightened Def Con from 6.13256e-005 to 6.13258e-005
Heightened Def Con from 6.13258e-005 to 6.13258e-005
Heightened Def Con from 6.13258e-005 to 6.13258e-005
Heightened Def Con from 6.13258e-005 to 6.13259e-005
Heightened Def Con from 6.13259e-005 to 6.13259e-005
Heightened Def Con from 6.1326e-005 to 6.13262e-005
Heightened Def Con from 6.13262e-005 to 6.13263e-005
Heightened Def Con from 6.13263e-005 to 6.13265e-005
Heightened Def Con from 6.13265e-005 to 6.13275e-005
Heightened Def Con from 6.13275e-005 to 6.13275e-005
Heightened Def Con from 6.13275e-005 to 6.13275e-005
Heightened Def Con from 6.13275e-005 to 6.13275e-005
Heightened Def Con from 6.13275e-005 to 6.13295e-005
Heightened Def Con from 6.13295e-005 to 6.13295e-005
Heightened Def Con from 6.13295e-005 to 6.13295e-005
Heightened Def Con from 6.13295e-005 to 6.13315e-005
Heightened Def Con from 6.13315e-005 to 6.13326e-005
Heightened Def Con from 6.13326e-005 to 6.13326e-005
Heightened Def Con from 6.13326e-005 to 6.13326e-005
Heightened Def Con from 6.13326e-005 to 6.13326e-005
Heightened Def Con from 6.13326e-005 to 6.13337e-005
Heightened Def Con from 6.13337e-005 to 6.13337e-005
Heightened Def Con from 6.13337e-005 to 6.13338e-005
Heightened Def Con from 6.13338e-005 to 6.13338e-005
Heightened Def Con from 6.13338e-005 to 6.13348e-005
Heightened Def Con from 6.13349e-005 to 6.13349e-005
Heightened Def Con from 6.13349e-005 to 6.13369e-005
Heightened Def Con from 6.13369e-005 to 6.13369e-005
Heightened Def Con from 6.13369e-005 to 6.13369e-005
Heightened Def Con from 6.13369e-005 to 6.13369e-005
Heightened Def Con from 6.13369e-005 to 6.13369e-005
Heightened Def Con from 6.13369e-005 to 6.13389e-005
Heightened Def Con from 6.13389e-005 to 6.13399e-005
Heightened Def Con from 6.13399e-005 to 6.13399e-005
Heightened Def Con from 6.13399e-005 to 6.13411e-005
Heightened Def Con from 6.13413e-005 to 6.13433e-005
Heightened Def Con from 6.13434e-005 to 6.13434e-005
Heightened Def Con from 6.13434e-005 to 6.13434e-005
Heightened Def Con from 6.13435e-005 to 6.13435e-005
Heightened Def Con from 6.13436e-005 to 6.13436e-005
Heightened Def Con from 6.13436e-005 to 6.13436e-005
Heightened Def Con from 6.13436e-005 to 6.13446e-005
Heightened Def Con from 6.13446e-005 to 6.13448e-005
Heightened Def Con from 6.13448e-005 to 6.13449e-005
Heightened Def Con from 6.13449e-005 to 6.13459e-005
Heightened Def Con from 6.13459e-005 to 6.13479e-005
Heightened Def Con from 6.13479e-005 to 6.13479e-005
Heightened Def Con from 6.13479e-005 to 6.13489e-005
Heightened Def Con from 6.13489e-005 to 6.13489e-005
Heightened Def Con from 6.13489e-005 to 6.13489e-005
Heightened Def Con from 6.13489e-005 to 6.1349e-005
Heightened Def Con from 6.1349e-005 to 6.1349e-005
Heightened Def Con from 6.1349e-005 to 6.135e-005
Heightened Def Con from 6.135e-005 +to 6.135e-005
Heightened Def Con from 6.135e-005 to 6.135e-005
Heightened Def Con from 6.135e-005 to 6.135e-005
Heightened Def Con from 6.135e-005 to 6.135e-005
Heightened Def Con from 6.135e-005 to 6.135e-005
Heightened Def Con from 6.13501e-005 to 6.13512e-005
Heightened Def Con from 6.13512e-005 to 6.13515e-005
Heightened Def Con from 6.13518e-005 to 6.13538e-005
Heightened Def Con from 6.13559e-005 to 6.1356e-005
Heightened Def Con from 6.1356e-005 to 6.1356e-005
Heightened Def Con from 6.1356e-005 to 6.13562e-005
Heightened Def Con from 6.13562e-005 to 6.13562e-005
Heightened Def Con from 6.13563e-005 to 6.13563e-005
Heightened Def Con from 6.13563e-005 to 6.13564e-005
Heightened Def Con from 6.13565e-005 to 6.13565e-005
Heightened Def Con from 6.13565e-005 to 6.13575e-005
Heightened Def Con from 6.13575e-005 to 6.13575e-005
Heightened Def Con from 6.13575e-005 to 6.13595e-005
Heightened Def Con from 6.1362e-005 to 6.13621e-005
Heightened Def Con from 6.13621e-005 to 6.13623e-005
Heightened Def Con from 6.13623e-005 to 6.13643e-005
Heightened Def Con from 6.13643e-005 to 6.13643e-005
Heightened Def Con from 6.13643e-005 to 6.13663e-005
Heightened Def Con from 6.13664e-005 to 6.13684e-005
Heightened Def Con from 6.13684e-005 to 6.13684e-005
Heightened Def Con from 6.13684e-005 to 6.13684e-005
Heightened Def Con from 6.13684e-005 to 6.13684e-005
Heightened Def Con from 6.13685e-005 to 6.13685e-005
Heightened Def Con from 6.13685e-005 to 6.13686e-005
Heightened Def Con from 6.13687e-005 to 6.13687e-005
Heightened Def Con from 6.13687e-005 to 6.13697e-005
Heightened Def Con from 6.13697e-005 to 6.13708e-005
Heightened Def Con from 6.13711e-005 to 6.13711e-005
Heightened Def Con from 6.13711e-005 to 6.13721e-005
Heightened Def Con from 6.13721e-005 to 6.13721e-005
Heightened Def Con from 6.13721e-005 to 6.13731e-005
Heightened Def Con from 6.13731e-005 to 6.13741e-005
Heightened Def Con from 6.13741e-005 to 6.13751e-005
Heightened Def Con from 6.13751e-005 to 6.13751e-005
Heightened Def Con from 6.13751e-005 to 6.13751e-005
Heightened Def Con from 6.13751e-005 to 6.13751e-005
Heightened Def Con from 6.13751e-005 to 6.13761e-005
Heightened Def Con from 6.13761e-005 to 6.13762e-005
Heightened Def Con from 6.13762e-005 to 6.13764e-005
Heightened Def Con from 6.13764e-005 to 6.13764e-005
Heightened Def Con from 6.13764e-005 to 6.13784e-005
Heightened Def Con from 6.13784e-005 to 6.13786e-005
Heightened Def Con from 6.13794e-005 to 6.13796e-005
Heightened Def Con from 6.13796e-005 to 6.13796e-005
Heightened Def Con from 6.13796e-005 to 6.13797e-005
Heightened Def Con from 6.13797e-005 to 6.13817e-005
Heightened Def Con from 6.13817e-005 to 6.13827e-005
Heightened Def Con from 6.13827e-005 to 6.13827e-005
Heightened Def Con from 6.13827e-005 to 6.13827e-005
Heightened Def Con from 6.13827e-005 to 6.13827e-005
Heightened Def Con from 6.13827e-005 to 6.13827e-005
Heightened Def Con from 6.13827e-005 to 6.13838e-005
Heightened Def Con from 6.13874e-005 to 6.13894e-005
Heightened Def Con from 6.13914e-005 to 6.13934e-005
Heightened Def Con from 6.13934e-005 to 6.13934e-005
Heightened Def Con from 6.13934e-005 to 6.13934e-005
Heightened Def Con from 6.13934e-005 to 6.13935e-005
Heightened Def Con from 6.13935e-005 to 6.13945e-005
Heightened Def Con from 6.13945e-005 +to 6.13955e-005
Heightened Def Con from 6.13957e-005 to 6.13958e-005
Heightened Def Con from 6.13958e-005 to 6.13958e-005
Heightened Def Con from 6.13958e-005 to 6.13968e-005
Heightened Def Con from 6.13968e-005 to 6.13968e-005
Heightened Def Con from 6.13968e-005 to 6.13968e-005
Heightened Def Con from 6.13968e-005 to 6.13969e-005
Heightened Def Con from 6.13969e-005 to 6.13969e-005
Heightened Def Con from 6.13969e-005 to 6.13969e-005
Heightened Def Con from 6.13969e-005 to 6.13979e-005
Heightened Def Con from 6.13979e-005 to 6.1398e-005
Heightened Def Con from 6.1398e-005 to 6.1398e-005
Heightened Def Con from 6.1398e-005 to 6.1398e-005
Heightened Def Con from 6.1398e-005 to 6.1398e-005
Heightened Def Con from 6.1398e-005 to 6.13982e-005
Heightened Def Con from 6.13982e-005 to 6.13993e-005
Heightened Def Con from 6.13996e-005 to 6.13996e-005
Heightened Def Con from 6.13997e-005 to 6.13997e-005
Heightened Def Con from 6.13998e-005 to 6.13999e-005
Heightened Def Con from 6.13999e-005 to 6.13999e-005
Heightened Def Con from 6.13999e-005 to 6.14e-005
Heightened Def Con from 6.14e-005 +to 6.1401e-005
Heightened Def Con from 6.1401e-005 to 6.1402e-005
Heightened Def Con from 6.1402e-005 to 6.1403e-005
Heightened Def Con from 6.1403e-005 to 6.14032e-005
Heightened Def Con from 6.14032e-005 to 6.14032e-005
Heightened Def Con from 6.14032e-005 to 6.14032e-005
Heightened Def Con from 6.14032e-005 to 6.14032e-005
Heightened Def Con from 6.14032e-005 +to 6.14052e-005
Heightened Def Con from 6.14052e-005 to 6.14052e-005
Heightened Def Con from 6.14052e-005 to 6.14072e-005
Heightened Def Con from 6.14072e-005 to 6.14072e-005
Heightened Def Con from 6.14072e-005 to 6.14092e-005
Heightened Def Con from 6.14093e-005 to 6.14103e-005
Heightened Def Con from 6.14103e-005 to 6.14103e-005
Heightened Def Con from 6.14103e-005 to 6.14123e-005
Heightened Def Con from 6.14123e-005 to 6.14133e-005
Heightened Def Con from 6.14133e-005 +to 6.14133e-005
Heightened Def Con from 6.14133e-005 to 6.14133e-005
Heightened Def Con from 6.14133e-005 to 6.14133e-005
Heightened Def Con from 6.14133e-005 to 6.14133e-005
Heightened Def Con from 6.14133e-005 to 6.14133e-005
Heightened Def Con from 6.14133e-005 +to 6.14133e-005
Heightened Def Con from 6.14134e-005 to 6.14134e-005
Heightened Def Con from 6.14134e-005 to 6.14144e-005
Heightened Def Con from 6.14144e-005 to 6.14164e-005
Heightened Def Con from 6.14164e-005 to 6.14175e-005
Heightened Def Con from 6.14175e-005 to 6.14176e-005
Heightened Def Con from 6.14176e-005 to 6.14176e-005
Heightened Def Con from 6.14176e-005 to 6.14177e-005
Heightened Def Con from 6.14177e-005 to 6.14177e-005
Heightened Def Con from 6.14177e-005 to 6.14178e-005
Heightened Def Con from 6.14178e-005 to 6.14178e-005
Heightened Def Con from 6.14178e-005 to 6.14178e-005
Heightened Def Con from 6.14178e-005 to 6.1418e-005
Heightened Def Con from 6.14183e-005 to 6.14184e-005
Heightened Def Con from 6.14184e-005 to 6.14185e-005
Heightened Def Con from 6.14185e-005 to 6.14185e-005
Heightened Def Con from 6.14185e-005 to 6.14185e-005
Heightened Def Con from 6.14185e-005 to 6.14185e-005
Heightened Def Con from 6.14185e-005 to 6.14187e-005
Heightened Def Con from 6.1419e-005 to 6.1419e-005
Heightened Def Con from 6.1419e-005 to 6.1419e-005
Heightened Def Con from 6.1419e-005 to 6.1419e-005
Heightened Def Con from 6.1419e-005 to 6.14192e-005
Heightened Def Con from 6.14192e-005 to 6.14192e-005
Heightened Def Con from 6.14192e-005 to 6.14193e-005
Heightened Def Con from 6.14196e-005 to 6.14196e-005
Heightened Def Con from 6.14196e-005 to 6.14207e-005
Heightened Def Con from 6.14211e-005 +to 6.14231e-005
Heightened Def Con from 6.14251e-005 to 6.14251e-005
Heightened Def Con from 6.14251e-005 to 6.14261e-005
Heightened Def Con from 6.14261e-005 to 6.14261e-005
Heightened Def Con from 6.14261e-005 to 6.14262e-005
Heightened Def Con from 6.14262e-005 to 6.14262e-005
Heightened Def Con from 6.14262e-005 to 6.14264e-005
Heightened Def Con from 6.14264e-005 to 6.14265e-005
Heightened Def Con from 6.14265e-005 to 6.14266e-005
Heightened Def Con from 6.14266e-005 to 6.14266e-005
Heightened Def Con from 6.14266e-005 to 6.14266e-005
Heightened Def Con from 6.14266e-005 to 6.14286e-005
Heightened Def Con from 6.14346e-005 to 6.14347e-005
Heightened Def Con from 6.14347e-005 to 6.14349e-005
Heightened Def Con from 6.14349e-005 to 6.14359e-005
Heightened Def Con from 6.14359e-005 to 6.14359e-005
Heightened Def Con from 6.14359e-005 to 6.14359e-005
Heightened Def Con from 6.14359e-005 to 6.1436e-005
Heightened Def Con from 6.1436e-005 to 6.14363e-005
Heightened Def Con from 6.14363e-005 to 6.14365e-005
Heightened Def Con from 6.14368e-005 to 6.14379e-005
Heightened Def Con from 6.14382e-005 to 6.14382e-005
Heightened Def Con from 6.14382e-005 to 6.14392e-005
Heightened Def Con from 6.14392e-005 to 6.14392e-005
Heightened Def Con from 6.14392e-005 +to 6.14402e-005
Heightened Def Con from 6.14423e-005 +to 6.14433e-005
Heightened Def Con from 6.14433e-005 +to 6.14433e-005
Heightened Def Con from 6.14434e-005 to 6.14434e-005
Heightened Def Con from 6.14434e-005 to 6.14434e-005
Heightened Def Con from 6.14434e-005 to 6.14435e-005
Heightened Def Con from 6.14435e-005 to 6.14437e-005
Heightened Def Con from 6.14437e-005 to 6.14457e-005
Heightened Def Con from 6.14458e-005 to 6.14458e-005
Heightened Def Con from 6.14458e-005 to 6.14459e-005
Heightened Def Con from 6.14459e-005 to 6.14459e-005
Heightened Def Con from 6.14459e-005 to 6.14479e-005
Heightened Def Con from 6.1448e-005 to 6.14481e-005
Heightened Def Con from 6.14481e-005 to 6.14481e-005
Heightened Def Con from 6.14481e-005 to 6.14482e-005
Heightened Def Con from 6.14482e-005 to 6.14483e-005
Heightened Def Con from 6.14483e-005 to 6.14503e-005
Heightened Def Con from 6.14503e-005 to 6.14503e-005
Heightened Def Con from 6.14503e-005 to 6.14503e-005
Heightened Def Con from 6.14503e-005 to 6.14523e-005
Heightened Def Con from 6.14543e-005 to 6.14543e-005
Heightened Def Con from 6.14543e-005 to 6.14554e-005
Heightened Def Con from 6.14554e-005 to 6.14564e-005
Heightened Def Con from 6.14564e-005 to 6.14566e-005
Heightened Def Con from 6.14566e-005 to 6.14566e-005
Heightened Def Con from 6.14566e-005 to 6.14576e-005
Heightened Def Con from 6.14576e-005 to 6.14578e-005
Heightened Def Con from 6.14581e-005 to 6.14581e-005
Heightened Def Con from 6.14581e-005 to 6.14581e-005
Heightened Def Con from 6.14581e-005 to 6.14581e-005
Heightened Def Con from 6.14581e-005 to 6.14581e-005
Heightened Def Con from 6.14581e-005 to 6.14582e-005
Heightened Def Con from 6.14582e-005 +to 6.14584e-005
Heightened Def Con from 6.14584e-005 to 6.14604e-005
Heightened Def Con from 6.14604e-005 to 6.14614e-005
Heightened Def Con from 6.14614e-005 to 6.14614e-005
Heightened Def Con from 6.14614e-005 to 6.14624e-005
Heightened Def Con from 6.14624e-005 to 6.14624e-005
Heightened Def Con from 6.14624e-005 +to 6.14624e-005
Heightened Def Con from 6.14624e-005 to 6.14624e-005
Heightened Def Con from 6.14624e-005 to 6.14626e-005
Heightened Def Con from 6.14629e-005 to 6.14639e-005
Heightened Def Con from 6.14639e-005 to 6.14639e-005
Heightened Def Con from 6.14639e-005 to 6.14649e-005
Heightened Def Con from 6.1465e-005 to 6.14651e-005
Heightened Def Con from 6.14651e-005 +to 6.14652e-005
Heightened Def Con from 6.14652e-005 to 6.14653e-005
Heightened Def Con from 6.14653e-005 +to 6.14663e-005
Heightened Def Con from 6.14664e-005 to 6.14664e-005
Heightened Def Con from 6.14664e-005 to 6.14664e-005
Heightened Def Con from 6.14664e-005 to 6.14684e-005
Heightened Def Con from 6.14744e-005 to 6.14764e-005
Heightened Def Con from 6.14784e-005 to 6.14784e-005
Heightened Def Con from 6.14784e-005 to 6.14786e-005
Heightened Def Con from 6.14786e-005 to 6.14788e-005
Heightened Def Con from 6.14788e-005 to 6.14789e-005
Heightened Def Con from 6.14789e-005 to 6.14789e-005
Heightened Def Con from 6.14789e-005 to 6.14799e-005
Heightened Def Con from 6.14799e-005 to 6.14799e-005
Heightened Def Con from 6.14799e-005 to 6.14801e-005
Heightened Def Con from 6.14801e-005 to 6.14801e-005
Heightened Def Con from 6.14801e-005 to 6.14802e-005
Heightened Def Con from 6.14802e-005 to 6.14803e-005
Heightened Def Con from 6.14803e-005 to 6.14814e-005
Heightened Def Con from 6.14817e-005 to 6.14817e-005
Heightened Def Con from 6.14817e-005 to 6.14837e-005
Heightened Def Con from 6.14977e-005 to 6.14978e-005
Heightened Def Con from 6.14978e-005 to 6.14998e-005
Heightened Def Con from 6.14998e-005 to 6.14999e-005
Heightened Def Con from 6.14999e-005 to 6.14999e-005
Heightened Def Con from 6.14999e-005 to 6.14999e-005
Heightened Def Con from 6.14999e-005 to 6.14999e-005
Heightened Def Con from 6.14999e-005 to 6.14999e-005
Heightened Def Con from 6.14999e-005 to 6.14999e-005
Heightened Def Con from 6.14999e-005 to 6.14999e-005
Heightened Def Con from 6.14999e-005 to 6.14999e-005
Heightened Def Con from 6.14999e-005 to 6.15009e-005
Heightened Def Con from 6.15009e-005 to 6.15009e-005
Heightened Def Con from 6.15009e-005 to 6.15009e-005
Heightened Def Con from 6.15009e-005 to 6.15009e-005
Heightened Def Con from 6.15009e-005 to 6.15009e-005
Heightened Def Con from 6.15009e-005 to 6.15009e-005
Heightened Def Con from 6.15009e-005 to 6.15011e-005
Heightened Def Con from 6.15011e-005 to 6.15012e-005
Heightened Def Con from 6.15012e-005 to 6.15022e-005
Heightened Def Con from 6.15022e-005 to 6.15023e-005
Heightened Def Con from 6.15023e-005 to 6.15023e-005
Heightened Def Con from 6.15023e-005 to 6.15033e-005
Heightened Def Con from 6.15033e-005 to 6.15033e-005
Heightened Def Con from 6.15033e-005 to 6.15045e-005
Heightened Def Con from 6.15062e-005 to 6.15062e-005
Heightened Def Con from 6.15062e-005 to 6.15064e-005
Heightened Def Con from 6.15064e-005 to 6.15064e-005
Heightened Def Con from 6.15064e-005 to 6.15064e-005
Heightened Def Con from 6.15064e-005 to 6.15064e-005
Heightened Def Con from 6.15064e-005 to 6.15075e-005
Heightened Def Con from 6.15075e-005 to 6.15075e-005
Heightened Def Con from 6.15075e-005 to 6.15085e-005
Heightened Def Con from 6.15085e-005 to 6.15096e-005
Heightened Def Con from 6.15097e-005 to 6.15098e-005
Heightened Def Con from 6.15098e-005 to 6.15108e-005
Heightened Def Con from 6.15108e-005 to 6.15108e-005
Heightened Def Con from 6.15108e-005 to 6.15108e-005
Heightened Def Con from 6.15109e-005 to 6.15109e-005
Heightened Def Con from 6.15109e-005 to 6.15109e-005
Heightened Def Con from 6.15109e-005 to 6.15109e-005
Heightened Def Con from 6.15109e-005 to 6.15109e-005
Heightened Def Con from 6.15109e-005 to 6.15109e-005
Heightened Def Con from 6.15109e-005 to 6.1511e-005
Heightened Def Con from 6.1511e-005 +to 6.1512e-005
Heightened Def Con from 6.1512e-005 to 6.15123e-005
Heightened Def Con from 6.15123e-005 to 6.15134e-005
Heightened Def Con from 6.15134e-005 to 6.15134e-005
Heightened Def Con from 6.15134e-005 to 6.15134e-005
Heightened Def Con from 6.15134e-005 to 6.15144e-005
Heightened Def Con from 6.15144e-005 to 6.15144e-005
Heightened Def Con from 6.15144e-005 to 6.15164e-005
Heightened Def Con from 6.15164e-005 +to 6.15164e-005
Heightened Def Con from 6.15164e-005 to 6.15165e-005
Heightened Def Con from 6.15165e-005 to 6.15175e-005
Heightened Def Con from 6.15175e-005 to 6.15176e-005
Heightened Def Con from 6.15176e-005 to 6.15187e-005
Heightened Def Con from 6.1519e-005 +to 6.1519e-005
Heightened Def Con from 6.1519e-005 to 6.15191e-005
Heightened Def Con from 6.15191e-005 to 6.15201e-005
Heightened Def Con from 6.15201e-005 to 6.15201e-005
Heightened Def Con from 6.15201e-005 to 6.15221e-005
Heightened Def Con from 6.15522e-005 +to 6.15522e-005
Heightened Def Con from 6.15522e-005 to 6.15522e-005
Heightened Def Con from 6.15523e-005 +to 6.15524e-005
Heightened Def Con from 6.15524e-005 to 6.15525e-005
Heightened Def Con from 6.15525e-005 to 6.15525e-005
Heightened Def Con from 6.15525e-005 to 6.15545e-005
Heightened Def Con from 6.15545e-005 to 6.15547e-005
Heightened Def Con from 6.15547e-005 to 6.15547e-005
Heightened Def Con from 6.15547e-005 to 6.15567e-005
Heightened Def Con from 6.15568e-005 to 6.15568e-005
Heightened Def Con from 6.15568e-005 to 6.15568e-005
Heightened Def Con from 6.15568e-005 to 6.15569e-005
Heightened Def Con from 6.15569e-005 to 6.1558e-005
Heightened Def Con from 6.1558e-005 +to 6.1558e-005
Heightened Def Con from 6.1558e-005 to 6.15582e-005
Heightened Def Con from 6.15582e-005 to 6.15582e-005
Heightened Def Con from 6.15582e-005 to 6.15583e-005
Heightened Def Con from 6.15583e-005 to 6.15583e-005
Heightened Def Con from 6.15583e-005 to 6.15583e-005
Heightened Def Con from 6.15583e-005 to 6.15594e-005
Heightened Def Con from 6.15597e-005 to 6.15597e-005
Heightened Def Con from 6.15597e-005 to 6.15597e-005
Heightened Def Con from 6.15597e-005 to 6.15597e-005
Heightened Def Con from 6.15598e-005 to 6.15601e-005
Heightened Def Con from 6.15601e-005 to 6.15611e-005
Heightened Def Con from 6.15612e-005 to 6.15622e-005
Heightened Def Con from 6.15622e-005 to 6.15622e-005
Heightened Def Con from 6.15622e-005 to 6.15632e-005
Heightened Def Con from 6.15632e-005 to 6.15632e-005
Heightened Def Con from 6.15632e-005 to 6.15633e-005
Heightened Def Con from 6.15633e-005 to 6.15633e-005
Heightened Def Con from 6.15633e-005 to 6.15634e-005
Heightened Def Con from 6.15634e-005 to 6.15634e-005
Heightened Def Con from 6.15634e-005 to 6.15635e-005
Heightened Def Con from 6.15635e-005 to 6.15655e-005
Heightened Def Con from 6.1568e-005 to 6.1568e-005
Heightened Def Con from 6.1568e-005 to 6.1568e-005
Heightened Def Con from 6.1568e-005 to 6.15683e-005
Heightened Def Con from 6.15683e-005 to 6.15683e-005
Heightened Def Con from 6.15683e-005 to 6.15683e-005
Heightened Def Con from 6.15683e-005 to 6.15683e-005
Heightened Def Con from 6.15683e-005 to 6.15684e-005
Heightened Def Con from 6.15684e-005 to 6.15685e-005
Heightened Def Con from 6.15688e-005 to 6.15688e-005
Heightened Def Con from 6.15688e-005 to 6.15708e-005
Heightened Def Con from 6.15708e-005 to 6.15708e-005
Heightened Def Con from 6.15708e-005 to 6.15708e-005
Heightened Def Con from 6.15708e-005 to 6.15708e-005
Heightened Def Con from 6.15709e-005 to 6.15729e-005
Heightened Def Con from 6.16079e-005 to 6.16079e-005
Heightened Def Con from 6.16079e-005 to 6.16079e-005
Heightened Def Con from 6.16079e-005 to 6.1608e-005
Heightened Def Con from 6.1608e-005 to 6.1609e-005
Heightened Def Con from 6.1609e-005 to 6.1609e-005
Heightened Def Con from 6.1609e-005 +to 6.16091e-005
Heightened Def Con from 6.16091e-005 to 6.16111e-005
Heightened Def Con from 6.16111e-005 to 6.16112e-005
Heightened Def Con from 6.16113e-005 to 6.16115e-005
Heightened Def Con from 6.16116e-005 to 6.16116e-005
Heightened Def Con from 6.16116e-005 to 6.16118e-005
Heightened Def Con from 6.16118e-005 to 6.16118e-005
Heightened Def Con from 6.16118e-005 to 6.16118e-005
Heightened Def Con from 6.16118e-005 to 6.16138e-005
Heightened Def Con from 6.16138e-005 to 6.16158e-005
Heightened Def Con from 6.16161e-005 to 6.16171e-005
Heightened Def Con from 6.16171e-005 +to 6.16182e-005
Heightened Def Con from 6.16182e-005 to 6.16182e-005
Heightened Def Con from 6.16182e-005 to 6.16192e-005
Heightened Def Con from 6.16192e-005 to 6.16212e-005
Heightened Def Con from 6.16215e-005 to 6.16216e-005
Heightened Def Con from 6.16216e-005 to 6.16226e-005
Heightened Def Con from 6.16226e-005 to 6.16226e-005
Heightened Def Con from 6.16226e-005 to 6.16226e-005
Heightened Def Con from 6.16226e-005 to 6.16226e-005
Heightened Def Con from 6.16226e-005 to 6.16227e-005
Heightened Def Con from 6.16227e-005 to 6.16227e-005
Heightened Def Con from 6.16227e-005 to 6.16227e-005
Heightened Def Con from 6.16227e-005 to 6.16247e-005
Heightened Def Con from 6.16268e-005 to 6.16269e-005
Heightened Def Con from 6.16269e-005 to 6.16269e-005
Heightened Def Con from 6.16269e-005 to 6.16272e-005
Heightened Def Con from 6.16272e-005 to 6.16272e-005
Heightened Def Con from 6.16272e-005 to 6.16272e-005
Heightened Def Con from 6.16272e-005 to 6.16272e-005
Heightened Def Con from 6.16272e-005 to 6.16272e-005
Heightened Def Con from 6.16272e-005 to 6.16282e-005
Heightened Def Con from 6.16282e-005 to 6.16282e-005
Heightened Def Con from 6.16282e-005 to 6.16283e-005
Heightened Def Con from 6.16283e-005 to 6.16295e-005
Heightened Def Con from 6.16298e-005 to 6.16298e-005
Heightened Def Con from 6.16298e-005 to 6.16298e-005
Heightened Def Con from 6.16298e-005 to 6.16298e-005
Heightened Def Con from 6.16298e-005 to 6.16298e-005
Heightened Def Con from 6.16298e-005 to 6.16318e-005
Heightened Def Con from 6.16326e-005 to 6.16337e-005
Heightened Def Con from 6.16337e-005 to 6.16348e-005
Heightened Def Con from 6.16349e-005 to 6.16359e-005
Heightened Def Con from 6.16359e-005 to 6.16359e-005
Heightened Def Con from 6.16359e-005 to 6.16359e-005
Heightened Def Con from 6.16359e-005 to 6.16379e-005
Heightened Def Con from 6.16381e-005 to 6.16391e-005
Heightened Def Con from 6.16391e-005 to 6.16393e-005
Heightened Def Con from 6.16414e-005 to 6.16426e-005
Heightened Def Con from 6.16426e-005 +to 6.16437e-005
Heightened Def Con from 6.16438e-005 to 6.1644e-005
Heightened Def Con from 6.1644e-005 to 6.1644e-005
Heightened Def Con from 6.1644e-005 to 6.16452e-005
Heightened Def Con from 6.16453e-005 to 6.16453e-005
Heightened Def Con from 6.16453e-005 to 6.16453e-005
Heightened Def Con from 6.16453e-005 to 6.16453e-005
Heightened Def Con from 6.16453e-005 to 6.16456e-005
Heightened Def Con from 6.16456e-005 to 6.16456e-005
Heightened Def Con from 6.16456e-005 to 6.16456e-005
Heightened Def Con from 6.16456e-005 to 6.16456e-005
Heightened Def Con from 6.16456e-005 +to 6.16456e-005
Heightened Def Con from 6.16456e-005 to 6.16467e-005
Heightened Def Con from 6.16468e-005 to 6.16478e-005
Heightened Def Con from 6.16478e-005 to 6.16479e-005
Heightened Def Con from 6.1648e-005 to 6.1648e-005
Heightened Def Con from 6.1648e-005 to 6.16481e-005
Heightened Def Con from 6.16481e-005 to 6.16481e-005
Heightened Def Con from 6.16481e-005 to 6.16491e-005
Heightened Def Con from 6.16491e-005 to 6.16501e-005
Heightened Def Con from 6.16501e-005 to 6.16501e-005
Heightened Def Con from 6.16501e-005 to 6.16501e-005
Heightened Def Con from 6.16501e-005 to 6.16501e-005
Heightened Def Con from 6.16501e-005 to 6.16521e-005
Heightened Def Con from 6.16521e-005 to 6.16522e-005
Heightened Def Con from 6.16522e-005 to 6.16522e-005
Heightened Def Con from 6.16522e-005 to 6.16525e-005
Heightened Def Con from 6.16525e-005 to 6.16526e-005
Heightened Def Con from 6.16529e-005 to 6.16529e-005
Heightened Def Con from 6.16529e-005 to 6.16549e-005
Heightened Def Con from 6.16549e-005 to 6.1655e-005
Heightened Def Con from 6.1655e-005 to 6.16551e-005
Heightened Def Con from 6.16551e-005 +to 6.16571e-005
Heightened Def Con from 6.16571e-005 +to 6.16572e-005
Heightened Def Con from 6.1658e-005 to 6.16591e-005
Heightened Def Con from 6.16591e-005 to 6.16603e-005
Heightened Def Con from 6.16623e-005 to 6.16625e-005
Heightened Def Con from 6.16628e-005 to 6.16648e-005
Heightened Def Con from 6.1665e-005 to 6.16651e-005
Heightened Def Con from 6.16651e-005 to 6.16652e-005
Heightened Def Con from 6.16652e-005 to 6.16652e-005
Heightened Def Con from 6.16652e-005 to 6.16652e-005
Heightened Def Con from 6.16652e-005 to 6.16652e-005
Heightened Def Con from 6.16652e-005 to 6.16655e-005
Heightened Def Con from 6.16655e-005 to 6.16655e-005
Heightened Def Con from 6.16655e-005 to 6.16655e-005
Heightened Def Con from 6.16655e-005 to 6.16655e-005
Heightened Def Con from 6.16655e-005 to 6.16657e-005
Heightened Def Con from 6.16657e-005 to 6.16668e-005
Heightened Def Con from 6.16668e-005 to 6.16668e-005
Heightened Def Con from 6.16668e-005 to 6.16668e-005
Heightened Def Con from 6.16668e-005 to 6.16671e-005
Heightened Def Con from 6.16671e-005 to 6.16671e-005
Heightened Def Con from 6.16671e-005 to 6.16681e-005
Heightened Def Con from 6.16681e-005 to 6.16691e-005
Heightened Def Con from 6.16691e-005 to 6.16691e-005
Heightened Def Con from 6.16691e-005 to 6.16691e-005
Heightened Def Con from 6.16691e-005 to 6.16691e-005
Heightened Def Con from 6.16691e-005 to 6.16691e-005
Heightened Def Con from 6.16691e-005 to 6.16692e-005
Heightened Def Con from 6.16692e-005 to 6.16693e-005
Heightened Def Con from 6.16693e-005 to 6.16693e-005
Heightened Def Con from 6.16693e-005 to 6.16693e-005
Heightened Def Con from 6.16693e-005 to 6.16693e-005
Heightened Def Con from 6.16693e-005 to 6.16713e-005
Heightened Def Con from 6.16716e-005 to 6.16716e-005
Heightened Def Con from 6.16716e-005 to 6.16716e-005
Heightened Def Con from 6.16716e-005 to 6.16716e-005
Heightened Def Con from 6.16716e-005 to 6.16717e-005
Heightened Def Con from 6.16717e-005 to 6.16717e-005
Heightened Def Con from 6.16717e-005 to 6.16717e-005
Heightened Def Con from 6.16717e-005 to 6.16717e-005
Heightened Def Con from 6.16717e-005 to 6.16717e-005
Heightened Def Con from 6.16717e-005 to 6.16717e-005
Heightened Def Con from 6.16717e-005 to 6.16719e-005
Heightened Def Con from 6.16719e-005 to 6.16721e-005
Heightened Def Con from 6.16721e-005 to 6.16721e-005
Heightened Def Con from 6.16721e-005 to 6.16741e-005
Heightened Def Con from 6.17361e-005 to 6.17372e-005
Heightened Def Con from 6.17372e-005 to 6.17384e-005
Heightened Def Con from 6.17384e-005 to 6.17386e-005
Heightened Def Con from 6.17386e-005 to 6.17387e-005
Heightened Def Con from 6.1739e-005 to 6.17391e-005
Heightened Def Con from 6.17391e-005 to 6.17401e-005
Heightened Def Con from 6.17401e-005 to 6.17411e-005
Heightened Def Con from 6.17411e-005 to 6.17412e-005
Heightened Def Con from 6.17412e-005 to 6.17414e-005
Heightened Def Con from 6.17414e-005 to 6.17414e-005
Heightened Def Con from 6.17414e-005 to 6.17424e-005
Heightened Def Con from 6.17424e-005 to 6.17427e-005
Heightened Def Con from 6.17427e-005 to 6.17437e-005
Heightened Def Con from 6.17437e-005 to 6.17437e-005
Heightened Def Con from 6.17437e-005 to 6.17438e-005
Heightened Def Con from 6.17438e-005 to 6.17439e-005
Heightened Def Con from 6.17439e-005 to 6.17459e-005
Heightened Def Con from 6.1746e-005 to 6.1747e-005
Heightened Def Con from 6.1747e-005 to 6.17471e-005
Heightened Def Con from 6.17471e-005 to 6.17471e-005
Heightened Def Con from 6.17471e-005 to 6.17471e-005
Heightened Def Con from 6.17471e-005 to 6.17471e-005
Heightened Def Con from 6.17471e-005 to 6.17482e-005
Heightened Def Con from 6.17482e-005 to 6.17485e-005
Heightened Def Con from 6.17485e-005 to 6.17495e-005
Heightened Def Con from 6.17495e-005 to 6.17495e-005
Heightened Def Con from 6.17495e-005 to 6.17495e-005
Heightened Def Con from 6.17495e-005 to 6.17495e-005
Heightened Def Con from 6.17495e-005 to 6.17495e-005
Heightened Def Con from 6.17495e-005 to 6.17495e-005
Heightened Def Con from 6.17495e-005 to 6.17495e-005
Heightened Def Con from 6.17495e-005 to 6.17496e-005
Heightened Def Con from 6.17496e-005 to 6.17496e-005
Heightened Def Con from 6.17496e-005 to 6.17506e-005
Heightened Def Con from 6.17506e-005 to 6.17506e-005
Heightened Def Con from 6.17506e-005 to 6.17506e-005
Heightened Def Con from 6.17506e-005 to 6.17506e-005
Heightened Def Con from 6.17506e-005 to 6.17506e-005
Heightened Def Con from 6.17506e-005 to 6.17508e-005
Heightened Def Con from 6.17508e-005 to 6.17508e-005
Heightened Def Con from 6.17508e-005 to 6.17508e-005
Heightened Def Con from 6.17508e-005 to 6.1751e-005
Heightened Def Con from 6.1751e-005 to 6.1753e-005
Heightened Def Con from 6.17531e-005 to 6.17541e-005
Heightened Def Con from 6.17541e-005 to 6.17541e-005
Heightened Def Con from 6.17541e-005 to 6.17541e-005
Heightened Def Con from 6.17541e-005 to 6.17552e-005
Heightened Def Con from 6.17556e-005 to 6.17556e-005
Heightened Def Con from 6.17556e-005 to 6.17557e-005
Heightened Def Con from 6.17557e-005 to 6.17577e-005
Heightened Def Con from 6.17577e-005 to 6.17588e-005
Heightened Def Con from 6.17588e-005 to 6.17598e-005
Heightened Def Con from 6.17598e-005 to 6.17599e-005
Heightened Def Con from 6.17599e-005 to 6.17599e-005
Heightened Def Con from 6.17599e-005 to 6.17599e-005
Heightened Def Con from 6.17599e-005 to 6.17599e-005
Heightened Def Con from 6.17599e-005 to 6.17599e-005
Heightened Def Con from 6.17599e-005 to 6.17599e-005
Heightened Def Con from 6.17599e-005 to 6.17599e-005
Heightened Def Con from 6.17599e-005 to 6.176e-005
Heightened Def Con from 6.176e-005 +to 6.17602e-005
Heightened Def Con from 6.17602e-005 to 6.17612e-005
Heightened Def Con from 6.17612e-005 +to 6.17615e-005
Heightened Def Con from 6.17619e-005 to 6.17619e-005
Heightened Def Con from 6.17619e-005 to 6.17619e-005
Heightened Def Con from 6.17619e-005 to 6.17629e-005
Heightened Def Con from 6.17629e-005 to 6.1763e-005
Heightened Def Con from 6.1763e-005 to 6.1763e-005
Heightened Def Con from 6.1763e-005 to 6.1763e-005
Heightened Def Con from 6.1763e-005 to 6.1763e-005
Heightened Def Con from 6.1763e-005 to 6.1765e-005
Heightened Def Con from 6.1765e-005 to 6.1767e-005
Heightened Def Con from 6.1767e-005 to 6.1767e-005
Heightened Def Con from 6.1767e-005 to 6.1767e-005
Heightened Def Con from 6.1767e-005 to 6.1767e-005
Heightened Def Con from 6.1767e-005 to 6.17671e-005
Heightened Def Con from 6.17671e-005 to 6.17682e-005
Heightened Def Con from 6.17682e-005 to 6.17684e-005
Heightened Def Con from 6.17684e-005 to 6.17695e-005
Heightened Def Con from 6.17698e-005 to 6.17698e-005
Heightened Def Con from 6.17698e-005 to 6.17699e-005
Heightened Def Con from 6.17699e-005 to 6.17709e-005
Heightened Def Con from 6.17709e-005 to 6.17709e-005
Heightened Def Con from 6.17709e-005 to 6.17709e-005
Heightened Def Con from 6.17709e-005 to 6.17712e-005
Heightened Def Con from 6.17712e-005 to 6.17722e-005
Heightened Def Con from 6.17722e-005 to 6.17742e-005
Heightened Def Con from 6.17742e-005 to 6.17742e-005
Heightened Def Con from 6.17742e-005 to 6.17743e-005
Heightened Def Con from 6.17743e-005 to 6.17745e-005
Heightened Def Con from 6.17745e-005 to 6.17745e-005
Heightened Def Con from 6.17745e-005 to 6.17755e-005
Heightened Def Con from 6.17755e-005 to 6.17757e-005
Heightened Def Con from 6.17761e-005 to 6.17761e-005
Heightened Def Con from 6.17761e-005 to 6.17771e-005
Heightened Def Con from 6.17771e-005 +to 6.17781e-005
Heightened Def Con from 6.17801e-005 to 6.17801e-005
Heightened Def Con from 6.17801e-005 to 6.17801e-005
Heightened Def Con from 6.17801e-005 to 6.17802e-005
Heightened Def Con from 6.17802e-005 to 6.17803e-005
Heightened Def Con from 6.17804e-005 to 6.17804e-005
Heightened Def Con from 6.17804e-005 to 6.17814e-005
Heightened Def Con from 6.17814e-005 to 6.17814e-005
Heightened Def Con from 6.17814e-005 to 6.17814e-005
Heightened Def Con from 6.17814e-005 to 6.17824e-005
Heightened Def Con from 6.17824e-005 to 6.17824e-005
Heightened Def Con from 6.17824e-005 to 6.17824e-005
Heightened Def Con from 6.17824e-005 to 6.17824e-005
Heightened Def Con from 6.17824e-005 to 6.17834e-005
Heightened Def Con from 6.17834e-005 to 6.17836e-005
Heightened Def Con from 6.17836e-005 to 6.17836e-005
Heightened Def Con from 6.17836e-005 to 6.17846e-005
Heightened Def Con from 6.17846e-005 to 6.17856e-005
Heightened Def Con from 6.17856e-005 to 6.17856e-005
Heightened Def Con from 6.17856e-005 to 6.17856e-005
Heightened Def Con from 6.17856e-005 to 6.17856e-005
Heightened Def Con from 6.17856e-005 to 6.17856e-005
Heightened Def Con from 6.17856e-005 to 6.17856e-005
Heightened Def Con from 6.17856e-005 to 6.17856e-005
Heightened Def Con from 6.17856e-005 to 6.17857e-005
Heightened Def Con from 6.17859e-005 to 6.17871e-005
Heightened Def Con from 6.17871e-005 to 6.17871e-005
Heightened Def Con from 6.17871e-005 to 6.17871e-005
Heightened Def Con from 6.17871e-005 to 6.17881e-005
Heightened Def Con from 6.17881e-005 to 6.17883e-005
Heightened Def Con from 6.17886e-005 to 6.17886e-005
Heightened Def Con from 6.17886e-005 to 6.17896e-005
Heightened Def Con from 6.17896e-005 to 6.17897e-005
Heightened Def Con from 6.17897e-005 to 6.17897e-005
Heightened Def Con from 6.17897e-005 to 6.17897e-005
Heightened Def Con from 6.17897e-005 to 6.179e-005
Heightened Def Con from 6.179e-005 to 6.179e-005
Heightened Def Con from 6.179e-005 to 6.179e-005
Heightened Def Con from 6.179e-005 to 6.17902e-005
Heightened Def Con from 6.17902e-005 to 6.17902e-005
Heightened Def Con from 6.17902e-005 +to 6.17912e-005
Heightened Def Con from 6.17912e-005 to 6.17912e-005
Heightened Def Con from 6.17912e-005 to 6.17912e-005
Heightened Def Con from 6.17912e-005 to 6.17922e-005
Heightened Def Con from 6.17922e-005 to 6.17942e-005
Heightened Def Con from 6.17944e-005 to 6.17964e-005
Heightened Def Con from 6.18024e-005 to 6.18024e-005
Heightened Def Con from 6.18025e-005 to 6.18025e-005
Heightened Def Con from 6.18025e-005 to 6.18025e-005
Heightened Def Con from 6.18025e-005 to 6.18027e-005
Heightened Def Con from 6.18035e-005 to 6.18055e-005
Heightened Def Con from 6.18075e-005 to 6.18076e-005
Heightened Def Con from 6.18076e-005 to 6.18076e-005
Heightened Def Con from 6.18076e-005 to 6.18087e-005
Heightened Def Con from 6.18094e-005 to 6.18104e-005
Heightened Def Con from 6.18104e-005 +to 6.18115e-005
Heightened Def Con from 6.18115e-005 to 6.18115e-005
Heightened Def Con from 6.18115e-005 to 6.18115e-005
Heightened Def Con from 6.18115e-005 to 6.18126e-005
Heightened Def Con from 6.18127e-005 to 6.18137e-005
Heightened Def Con from 6.18137e-005 to 6.18137e-005
Heightened Def Con from 6.18137e-005 to 6.18137e-005
Heightened Def Con from 6.18137e-005 to 6.18137e-005
Heightened Def Con from 6.18137e-005 to 6.18139e-005
Heightened Def Con from 6.18139e-005 to 6.18141e-005
Heightened Def Con from 6.18141e-005 to 6.18141e-005
Heightened Def Con from 6.18141e-005 to 6.18143e-005
Heightened Def Con from 6.18143e-005 to 6.18153e-005
Heightened Def Con from 6.18153e-005 to 6.18153e-005
Heightened Def Con from 6.18153e-005 to 6.18153e-005
Heightened Def Con from 6.18153e-005 to 6.18153e-005
Heightened Def Con from 6.18153e-005 to 6.18154e-005
Heightened Def Con from 6.18154e-005 to 6.18164e-005
Heightened Def Con from 6.18164e-005 ++to 6.18175e-005
Heightened Def Con from 6.18175e-005 to 6.18176e-005
Heightened Def Con from 6.18176e-005 to 6.18177e-005
Heightened Def Con from 6.18177e-005 to 6.18188e-005
Heightened Def Con from 6.18189e-005 to 6.182e-005
Heightened Def Con from 6.182e-005 to 6.182e-005
Heightened Def Con from 6.182e-005 to 6.1821e-005
Heightened Def Con from 6.1821e-005 to 6.18211e-005
Heightened Def Con from 6.18211e-005 to 6.18214e-005
Heightened Def Con from 6.1822e-005 to 6.1824e-005
Heightened Def Con from 6.183e-005 to 6.18301e-005
Heightened Def Con from 6.18301e-005 to 6.18312e-005
Heightened Def Con from 6.18321e-005 to 6.18331e-005
Heightened Def Con from 6.18331e-005 to 6.18332e-005
Heightened Def Con from 6.18332e-005 to 6.18334e-005
Heightened Def Con from 6.18334e-005 to 6.18334e-005
Heightened Def Con from 6.18334e-005 to 6.18335e-005
Heightened Def Con from 6.18335e-005 to 6.18355e-005
Heightened Def Con from 6.18415e-005 to 6.18416e-005
Heightened Def Con from 6.18417e-005 to 6.18417e-005
Heightened Def Con from 6.18417e-005 to 6.18417e-005
Heightened Def Con from 6.18417e-005 to 6.18417e-005
Heightened Def Con from 6.18417e-005 to 6.18427e-005
Heightened Def Con from 6.18427e-005 to 6.18427e-005
Heightened Def Con from 6.18427e-005 to 6.18438e-005
Heightened Def Con from 6.1844e-005 to 6.1844e-005
Heightened Def Con from 6.1844e-005 to 6.18442e-005
Heightened Def Con from 6.18442e-005 to 6.18452e-005
Heightened Def Con from 6.18452e-005 to 6.18472e-005
Heightened Def Con from 6.18532e-005 to 6.18542e-005
Heightened Def Con from 6.18542e-005 to 6.18542e-005
Heightened Def Con from 6.18542e-005 to 6.18542e-005
Heightened Def Con from 6.18542e-005 ++to 6.18552e-005
Heightened Def Con from 6.18554e-005 to 6.18556e-005
Heightened Def Con from 6.18556e-005 to 6.18557e-005
Heightened Def Con from 6.18577e-005 +to 6.18587e-005
Heightened Def Con from 6.18587e-005 to 6.18597e-005
Heightened Def Con from 6.18597e-005 +to 6.18597e-005
Heightened Def Con from 6.18597e-005 to 6.18607e-005
Heightened Def Con from 6.18607e-005 to 6.1861e-005
Heightened Def Con from 6.18618e-005 to 6.1863e-005
Heightened Def Con from 6.1863e-005 to 6.1864e-005
Heightened Def Con from 6.1864e-005 to 6.1866e-005
Heightened Def Con from 6.1868e-005 to 6.18683e-005
Heightened Def Con from 6.18683e-005 to 6.18684e-005
Heightened Def Con from 6.18684e-005 to 6.18695e-005
Heightened Def Con from 6.18696e-005 to 6.18698e-005
Heightened Def Con from 6.18698e-005 to 6.187e-005
Heightened Def Con from 6.18701e-005 to 6.18701e-005
Heightened Def Con from 6.18701e-005 to 6.18712e-005
Heightened Def Con from 6.18713e-005 to 6.18713e-005
Heightened Def Con from 6.18713e-005 to 6.18714e-005
Heightened Def Con from 6.18714e-005 to 6.18734e-005
Heightened Def Con from 6.18734e-005 to 6.18734e-005
Heightened Def Con from 6.18734e-005 to 6.18734e-005
Heightened Def Con from 6.18734e-005 to 6.18734e-005
Heightened Def Con from 6.18734e-005 to 6.18737e-005
Heightened Def Con from 6.18737e-005 to 6.18737e-005
Heightened Def Con from 6.18737e-005 to 6.18747e-005
Heightened Def Con from 6.18748e-005 to 6.18749e-005
Heightened Def Con from 6.18749e-005 to 6.18749e-005
Heightened Def Con from 6.1875e-005 to 6.1875e-005
Heightened Def Con from 6.1875e-005 to 6.18751e-005
Heightened Def Con from 6.18751e-005 to 6.18751e-005
Heightened Def Con from 6.18751e-005 to 6.18751e-005
Heightened Def Con from 6.18751e-005 to 6.18761e-005
Heightened Def Con from 6.18761e-005 to 6.18771e-005
Heightened Def Con from 6.18771e-005 to 6.18782e-005
Heightened Def Con from 6.18782e-005 to 6.18784e-005
Heightened Def Con from 6.18784e-005 to 6.18785e-005
Heightened Def Con from 6.18785e-005 to 6.18796e-005
Heightened Def Con from 6.18796e-005 to 6.18796e-005
Heightened Def Con from 6.18796e-005 to 6.18798e-005
Heightened Def Con from 6.18798e-005 to 6.18799e-005
Heightened Def Con from 6.18799e-005 to 6.18799e-005
Heightened Def Con from 6.18799e-005 +to 6.18799e-005
Heightened Def Con from 6.188e-005 to 6.18802e-005
Heightened Def Con from 6.18802e-005 to 6.18802e-005
Heightened Def Con from 6.18802e-005 to 6.18822e-005
Heightened Def Con from 6.18823e-005 to 6.18824e-005
Heightened Def Con from 6.18824e-005 to 6.18826e-005
Heightened Def Con from 6.18826e-005 to 6.18827e-005
Heightened Def Con from 6.18827e-005 to 6.18847e-005
Heightened Def Con from 6.18867e-005 to 6.18867e-005
Heightened Def Con from 6.18867e-005 to 6.18867e-005
Heightened Def Con from 6.18867e-005 to 6.18867e-005
Heightened Def Con from 6.18867e-005 to 6.18868e-005
Heightened Def Con from 6.18868e-005 to 6.18868e-005
Heightened Def Con from 6.18868e-005 to 6.18878e-005
Heightened Def Con from 6.18878e-005 +to 6.18888e-005
Heightened Def Con from 6.18957e-005 +to 6.18957e-005
Heightened Def Con from 6.18957e-005 +to 6.18957e-005
Heightened Def Con from 6.18957e-005 to 6.18957e-005
Heightened Def Con from 6.18957e-005 to 6.1896e-005
Heightened Def Con from 6.1896e-005 to 6.1896e-005
Heightened Def Con from 6.1896e-005 to 6.18961e-005
Heightened Def Con from 6.18962e-005 to 6.18962e-005
Heightened Def Con from 6.18962e-005 to 6.18962e-005
Heightened Def Con from 6.18962e-005 to 6.18962e-005
Heightened Def Con from 6.18962e-005 to 6.18962e-005
Heightened Def Con from 6.18962e-005 to 6.18962e-005
Heightened Def Con from 6.18962e-005 to 6.18962e-005
Heightened Def Con from 6.18962e-005 to 6.18972e-005
Heightened Def Con from 6.18972e-005 to 6.18974e-005
Heightened Def Con from 6.18974e-005 to 6.18985e-005
[...]
Heightened Def Con from 6.9233e-005 to 6.9233e-005
Heightened Def Con from 6.9233e-005 to 6.92333e-005
Heightened Def Con from 6.92333e-005 to 6.92333e-005
Heightened Def Con from 6.92334e-005 to 6.92345e-005
Heightened Def Con from 6.92349e-005 to 6.92352e-005
Heightened Def Con from 6.92359e-005 to 6.92359e-005
Heightened Def Con from 6.92359e-005 to 6.92379e-005
Heightened Def Con from 6.92382e-005 to 6.92402e-005
Heightened Def Con from 6.92404e-005 to 6.92407e-005
Heightened Def Con from 6.92407e-005 to 6.92407e-005
Heightened Def Con from 6.92407e-005 to 6.92408e-005
Heightened Def Con from 6.92408e-005 to 6.92418e-005
Heightened Def Con from 6.92418e-005 to 6.92418e-005
Heightened Def Con from 6.92418e-005 to 6.92438e-005
Heightened Def Con from 6.92441e-005 to 6.92441e-005
Heightened Def Con from 6.92441e-005 to 6.92441e-005
Heightened Def Con from 6.92441e-005 to 6.92442e-005
Heightened Def Con from 6.92442e-005 to 6.92444e-005
Heightened Def Con from 6.92445e-005 to 6.92445e-005
Heightened Def Con from 6.92445e-005 to 6.92445e-005
Heightened Def Con from 6.92445e-005 to 6.92456e-005
Heightened Def Con from 6.9246e-005 to 6.92462e-005
Heightened Def Con from 6.92462e-005 to 6.92462e-005
Heightened Def Con from 6.92462e-005 to 6.92465e-005
Heightened Def Con from 6.92465e-005 to 6.92465e-005
Heightened Def Con from 6.92465e-005 to 6.92476e-005
Heightened Def Con from 6.92476e-005 to 6.92487e-005
Heightened Def Con from 6.92488e-005 to 6.92498e-005
Heightened Def Con from 6.92498e-005 to 6.92498e-005
Heightened Def Con from 6.92498e-005 to 6.92508e-005
Heightened Def Con from 6.92508e-005 to 6.92518e-005
Heightened Def Con from 6.92518e-005 to 6.9252e-005
Heightened Def Con from 6.92523e-005 to 6.92525e-005
Heightened Def Con from 6.92525e-005 to 6.92525e-005
Heightened Def Con from 6.92525e-005 to 6.92545e-005
Heightened Def Con from 6.92545e-005 to 6.92565e-005
Heightened Def Con from 6.92586e-005 to 6.92586e-005
Heightened Def Con from 6.92586e-005 to 6.92606e-005
Heightened Def Con from 6.92606e-005 to 6.92616e-005
Heightened Def Con from 6.92616e-005 to 6.92636e-005
Heightened Def Con from 6.92697e-005 to 6.92707e-005
Heightened Def Con from 6.92707e-005 to 6.92727e-005
Heightened Def Con from 6.92729e-005 to 6.92729e-005
Heightened Def Con from 6.92729e-005 to 6.92749e-005
Heightened Def Con from 6.92787e-005 to 6.92797e-005
Heightened Def Con from 6.92894e-005 to 6.92894e-005
Heightened Def Con from 6.92895e-005 to 6.92896e-005
Heightened Def Con from 6.92896e-005 to 6.92896e-005
Heightened Def Con from 6.92896e-005 to 6.92896e-005
Heightened Def Con from 6.92896e-005 to 6.92906e-005
Heightened Def Con from 6.92906e-005 to 6.92916e-005
Heightened Def Con from 6.92916e-005 to 6.92928e-005
Heightened Def Con from 6.92931e-005 to 6.92931e-005
Heightened Def Con from 6.92931e-005 to 6.92942e-005
Heightened Def Con from 6.92942e-005 to 6.92944e-005
Heightened Def Con from 6.92944e-005 to 6.92945e-005
Heightened Def Con from 6.92945e-005 to 6.92948e-005
Heightened Def Con from 6.92948e-005 to 6.92959e-005
Heightened Def Con from 6.92959e-005 to 6.92969e-005
Heightened Def Con from 6.92969e-005 to 6.92969e-005
Heightened Def Con from 6.92969e-005 to 6.92969e-005
Heightened Def Con from 6.92969e-005 to 6.92979e-005
Heightened Def Con from 6.92979e-005 to 6.9299e-005
Heightened Def Con from 6.92991e-005 to 6.93011e-005
Heightened Def Con from 6.93012e-005 to 6.93032e-005
Heightened Def Con from 6.93213e-005 to 6.93233e-005
Heightened Def Con from 6.93293e-005 to 6.93293e-005
Heightened Def Con from 6.93293e-005 to 6.93296e-005
Heightened Def Con from 6.93304e-005 to 6.93314e-005
Heightened Def Con from 6.93314e-005 to 6.93315e-005
Heightened Def Con from 6.93315e-005 to 6.93315e-005
Heightened Def Con from 6.93315e-005 to 6.93326e-005
Heightened Def Con from 6.93327e-005 to 6.93327e-005
Heightened Def Con from 6.93327e-005 to 6.93347e-005
Heightened Def Con from 6.93367e-005 to 6.93377e-005
Heightened Def Con from 6.93377e-005 to 6.93387e-005
Heightened Def Con from 6.93388e-005 to 6.93389e-005
Heightened Def Con from 6.93389e-005 to 6.93389e-005
Heightened Def Con from 6.93389e-005 to 6.93392e-005
Heightened Def Con from 6.93395e-005 to 6.93405e-005
Heightened Def Con from 6.93405e-005 to 6.93406e-005
Heightened Def Con from 6.93407e-005 to 6.93419e-005
Heightened Def Con from 6.93421e-005 to 6.93433e-005
Heightened Def Con from 6.93433e-005 to 6.93453e-005
Heightened Def Con from 6.93456e-005 to 6.93466e-005
Heightened Def Con from 6.93466e-005 to 6.93477e-005
Heightened Def Con from 6.93479e-005 to 6.93482e-005
Heightened Def Con from 6.93489e-005 to 6.93491e-005
Heightened Def Con from 6.93491e-005 to 6.93491e-005
Heightened Def Con from 6.93491e-005 to 6.93492e-005
Heightened Def Con from 6.93493e-005 to 6.93493e-005
Heightened Def Con from 6.93493e-005 to 6.93503e-005
Heightened Def Con from 6.93503e-005 to 6.93503e-005
Heightened Def Con from 6.93503e-005 to 6.93523e-005
Heightened Def Con from 6.93668e-005 to 6.93678e-005
Heightened Def Con from 6.93678e-005 to 6.93681e-005
Heightened Def Con from 6.93681e-005 to 6.93681e-005
Heightened Def Con from 6.93681e-005 to 6.93681e-005
Heightened Def Con from 6.93682e-005 to 6.93693e-005
Heightened Def Con from 6.937e-005 to 6.937e-005
Heightened Def Con from 6.93701e-005 to 6.93703e-005
Heightened Def Con from 6.93703e-005 to 6.93704e-005
Heightened Def Con from 6.93706e-005 to 6.93726e-005
Heightened Def Con from 6.93735e-005 to 6.93737e-005
Heightened Def Con from 6.9374e-005 to 6.9374e-005
Heightened Def Con from 6.9374e-005 to 6.9374e-005
Heightened Def Con from 6.9374e-005 to 6.93742e-005
Heightened Def Con from 6.93742e-005 to 6.93753e-005
Heightened Def Con from 6.93754e-005 to 6.93766e-005
Heightened Def Con from 6.93766e-005 to 6.93776e-005
Heightened Def Con from 6.93776e-005 to 6.93787e-005
Heightened Def Con from 6.93787e-005 to 6.93807e-005
Heightened Def Con from 6.93827e-005 to 6.93829e-005
Heightened Def Con from 6.93829e-005 to 6.93849e-005
Heightened Def Con from 6.93975e-005 to 6.93978e-005
Heightened Def Con from 6.9398e-005 to 6.93983e-005
Heightened Def Con from 6.93983e-005 to 6.93983e-005
Heightened Def Con from 6.93983e-005 to 6.94003e-005
Heightened Def Con from 6.94003e-005 to 6.94004e-005
Heightened Def Con from 6.94004e-005 to 6.94014e-005
Heightened Def Con from 6.94014e-005 to 6.94014e-005
Heightened Def Con from 6.94014e-005 to 6.94034e-005
Heightened Def Con from 6.94034e-005 to 6.94034e-005
Heightened Def Con from 6.94034e-005 to 6.94034e-005
Heightened Def Con from 6.94034e-005 to 6.94054e-005
Heightened Def Con from 6.94057e-005 to 6.94077e-005
Heightened Def Con from 6.94077e-005 to 6.94077e-005
Heightened Def Con from 6.94077e-005 to 6.9408e-005
Heightened Def Con from 6.94085e-005 to 6.94085e-005
Heightened Def Con from 6.94085e-005 to 6.94087e-005
Heightened Def Con from 6.94087e-005 to 6.94097e-005
Heightened Def Con from 6.94097e-005 to 6.94108e-005
Heightened Def Con from 6.94109e-005 to 6.94109e-005
Heightened Def Con from 6.94109e-005 to 6.94112e-005
Heightened Def Con from 6.94114e-005 to 6.94124e-005
Heightened Def Con from 6.94124e-005 to 6.94127e-005
Heightened Def Con from 6.94127e-005 to 6.94128e-005
Heightened Def Con from 6.94128e-005 to 6.94128e-005
Heightened Def Con from 6.94128e-005 to 6.94148e-005
Heightened Def Con from 6.94148e-005 to 6.94149e-005
Heightened Def Con from 6.9415e-005 to 6.9417e-005
Heightened Def Con from 6.94174e-005 to 6.94194e-005
Heightened Def Con from 6.94194e-005 to 6.94214e-005
Heightened Def Con from 6.94214e-005 to 6.94234e-005
Heightened Def Con from 6.94235e-005 to 6.94237e-005
Heightened Def Con from 6.94237e-005 to 6.94238e-005
Heightened Def Con from 6.94238e-005 to 6.94248e-005
Heightened Def Con from 6.94248e-005 to 6.9425e-005
Heightened Def Con from 6.94408e-005 to 6.94409e-005
Heightened Def Con from 6.94409e-005 to 6.94409e-005
Heightened Def Con from 6.94409e-005 to 6.94409e-005
Heightened Def Con from 6.94409e-005 to 6.94409e-005
Heightened Def Con from 6.94409e-005 to 6.94429e-005
Heightened Def Con from 6.9443e-005 to 6.9445e-005
Heightened Def Con from 6.94451e-005 to 6.94452e-005
Heightened Def Con from 6.94453e-005 to 6.94464e-005
Heightened Def Con from 6.94464e-005 to 6.94464e-005
Heightened Def Con from 6.94464e-005 to 6.94464e-005
Heightened Def Con from 6.94464e-005 to 6.94466e-005
Heightened Def Con from 6.94466e-005 to 6.94466e-005
Heightened Def Con from 6.94466e-005 to 6.94486e-005
Heightened Def Con from 6.94512e-005 to 6.94512e-005
Heightened Def Con from 6.94512e-005 to 6.94523e-005
Heightened Def Con from 6.94532e-005 to 6.94533e-005
Heightened Def Con from 6.94533e-005 to 6.94533e-005
Heightened Def Con from 6.94533e-005 to 6.94543e-005
Heightened Def Con from 6.94543e-005 to 6.94553e-005
Heightened Def Con from 6.94553e-005 to 6.94553e-005
Heightened Def Con from 6.94553e-005 to 6.94573e-005
Heightened Def Con from 6.94574e-005 to 6.94574e-005
Heightened Def Con from 6.94574e-005 to 6.94574e-005
Heightened Def Con from 6.94574e-005 to 6.94577e-005
Heightened Def Con from 6.94582e-005 to 6.94593e-005
Heightened Def Con from 6.94593e-005 to 6.94613e-005
Heightened Def Con from 6.94614e-005 to 6.94624e-005
Heightened Def Con from 6.94625e-005 to 6.94625e-005
Heightened Def Con from 6.94625e-005 to 6.94627e-005
Heightened Def Con from 6.94627e-005 to 6.94639e-005
Heightened Def Con from 6.94686e-005 to 6.94706e-005
Heightened Def Con from 6.94846e-005 to 6.94866e-005
Heightened Def Con from 6.94935e-005 to 6.94937e-005
Heightened Def Con from 6.94938e-005 to 6.94939e-005
Heightened Def Con from 6.94939e-005 to 6.94959e-005
Heightened Def Con from 6.9505e-005 to 6.95051e-005
Heightened Def Con from 6.95051e-005 to 6.95051e-005
Heightened Def Con from 6.95051e-005 to 6.95062e-005
Heightened Def Con from 6.95063e-005 to 6.95073e-005
Heightened Def Con from 6.95073e-005 to 6.95093e-005
Heightened Def Con from 6.95094e-005 to 6.95095e-005
Heightened Def Con from 6.951e-005 to 6.95101e-005
Heightened Def Con from 6.95101e-005 to 6.95121e-005
Heightened Def Con from 6.95141e-005 to 6.95141e-005
Heightened Def Con from 6.95141e-005 to 6.95151e-005
Heightened Def Con from 6.95151e-005 to 6.95154e-005
Heightened Def Con from 6.95156e-005 to 6.95156e-005
Heightened Def Con from 6.95156e-005 to 6.95157e-005
Heightened Def Con from 6.95157e-005 to 6.9516e-005
Heightened Def Con from 6.9516e-005 to 6.95163e-005
Heightened Def Con from 6.9517e-005 to 6.95182e-005
Heightened Def Con from 6.95199e-005 to 6.95219e-005
Heightened Def Con from 6.95843e-005 to 6.95853e-005
Heightened Def Con from 6.95854e-005 to 6.95854e-005
Heightened Def Con from 6.95854e-005 to 6.95857e-005
Heightened Def Con from 6.95857e-005 to 6.95877e-005
Heightened Def Con from 6.95879e-005 to 6.95899e-005
Heightened Def Con from 6.959e-005 to 6.9592e-005
Heightened Def Con from 6.96086e-005 to 6.96096e-005
Heightened Def Con from 6.96096e-005 to 6.96099e-005
Heightened Def Con from 6.96109e-005 to 6.96129e-005
Heightened Def Con from 6.96129e-005 to 6.96131e-005
Heightened Def Con from 6.9615e-005 to 6.9617e-005
Heightened Def Con from 6.96905e-005 to 6.96905e-005
Heightened Def Con from 6.96905e-005 to 6.96907e-005
Heightened Def Con from 6.96907e-005 to 6.96907e-005
Heightened Def Con from 6.96907e-005 to 6.96917e-005
Heightened Def Con from 6.96917e-005 to 6.96937e-005
Heightened Def Con from 6.96957e-005 to 6.96958e-005
Heightened Def Con from 6.96958e-005 to 6.96978e-005
Heightened Def Con from 6.96979e-005 to 6.96979e-005
Heightened Def Con from 6.96981e-005 to 6.96992e-005
Heightened Def Con from 6.96997e-005 to 6.97008e-005
Heightened Def Con from 6.97011e-005 to 6.97011e-005
Heightened Def Con from 6.97011e-005 to 6.97013e-005
Heightened Def Con from 6.97013e-005 to 6.97013e-005
Heightened Def Con from 6.97013e-005 to 6.97033e-005
Heightened Def Con from 6.97033e-005 to 6.97035e-005
Heightened Def Con from 6.97035e-005 to 6.97036e-005
Heightened Def Con from 6.97036e-005 to 6.97047e-005
Heightened Def Con from 6.97049e-005 to 6.97049e-005
Heightened Def Con from 6.97049e-005 to 6.97049e-005
Heightened Def Con from 6.97049e-005 to 6.97049e-005
Heightened Def Con from 6.97049e-005 to 6.9706e-005
Heightened Def Con from 6.9706e-005 to 6.9708e-005
Heightened Def Con from 6.97186e-005 to 6.97188e-005
Heightened Def Con from 6.97188e-005 to 6.97208e-005
Heightened Def Con from 6.97211e-005 to 6.97212e-005
Heightened Def Con from 6.97212e-005 to 6.97214e-005
Heightened Def Con from 6.97215e-005 to 6.97235e-005
Heightened Def Con from 6.97255e-005 to 6.97255e-005
Heightened Def Con from 6.97255e-005 to 6.97275e-005
Heightened Def Con from 6.97275e-005 to 6.97278e-005
Heightened Def Con from 6.97278e-005 to 6.97278e-005
Heightened Def Con from 6.97278e-005 to 6.97279e-005
Heightened Def Con from 6.97279e-005 to 6.97282e-005
Heightened Def Con from 6.97299e-005 to 6.97319e-005
Heightened Def Con from 6.97344e-005 +to 6.97344e-005
Heightened Def Con from 6.97345e-005 to 6.97347e-005
Heightened Def Con from 6.97347e-005 to 6.97347e-005
Heightened Def Con from 6.97348e-005 to 6.97368e-005
Heightened Def Con from 6.97579e-005 to 6.97579e-005
Heightened Def Con from 6.97579e-005 to 6.97599e-005
Heightened Def Con from 6.97678e-005 to 6.97698e-005
Heightened Def Con from 6.97718e-005 to 6.97729e-005
Heightened Def Con from 6.97734e-005 to 6.97737e-005
Heightened Def Con from 6.97739e-005 to 6.97749e-005
Heightened Def Con from 6.97749e-005 to 6.97761e-005
Heightened Def Con from 6.97769e-005 to 6.97769e-005
Heightened Def Con from 6.97769e-005 to 6.97789e-005
Heightened Def Con from 6.97809e-005 to 6.97811e-005
Heightened Def Con from 6.97811e-005 to 6.97822e-005
Heightened Def Con from 6.97822e-005 to 6.97822e-005
Heightened Def Con from 6.97822e-005 to 6.97822e-005
Heightened Def Con from 6.97822e-005 to 6.97842e-005
Heightened Def Con from 6.97842e-005 to 6.97862e-005
Heightened Def Con from 6.98513e-005 to 6.98513e-005
Heightened Def Con from 6.98513e-005 to 6.98523e-005
Heightened Def Con from 6.98523e-005 to 6.98524e-005
Heightened Def Con from 6.98524e-005 to 6.98534e-005
Heightened Def Con from 6.98534e-005 to 6.98544e-005
Heightened Def Con from 6.98544e-005 to 6.98547e-005
Heightened Def Con from 6.98564e-005 to 6.98584e-005
Heightened Def Con from 6.98959e-005 to 6.98969e-005
Heightened Def Con from 6.98969e-005 to 6.98989e-005
Heightened Def Con from 6.99015e-005 to 6.99035e-005
Heightened Def Con from 6.99035e-005 to 6.99035e-005
Heightened Def Con from 6.99035e-005 to 6.99035e-005
Heightened Def Con from 6.99035e-005 to 6.99037e-005
Heightened Def Con from 6.99037e-005 to 6.99037e-005
Heightened Def Con from 6.99038e-005 to 6.99058e-005
Heightened Def Con from 6.99097e-005 to 6.99098e-005
Heightened Def Con from 6.99099e-005 to 6.99101e-005
Heightened Def Con from 0.000152993 to 0.000152995
Heightened Def Con from 0.000154737 to 0.000154737
Heightened Def Con from 0.000154737 to 0.000154739
Heightened Def Con from 0.000154743 to 0.000154744
Heightened Def Con from 0.000154744 +to 0.000154745
Heightened Def Con from 0.000154745 to 0.000154745
Heightened Def Con from 0.000154745 to 0.000154745
Heightened Def Con from 0.000154745 to 0.000154746
Heightened Def Con from 0.000154748 to 0.000154748
Heightened Def Con from 0.000154748 to 0.000154749
Heightened Def Con from 0.000154749 to 0.000154749
Heightened Def Con from 0.000154749 to 0.000154749
Heightened Def Con from 0.000154749 to 0.00015475
Heightened Def Con from 0.00015475 to 0.00015475
Heightened Def Con from 0.00015475 to 0.00015475
Heightened Def Con from 0.00015475 to 0.00015475
Heightened Def Con from 0.00015475 to 0.00015475
Heightened Def Con from 0.000154751 to 0.000154753
Heightened Def Con from 0.000154753 to 0.000154753
Heightened Def Con from 0.000154753 to 0.000154755
Heightened Def Con from 0.000154755 to 0.000154756
Heightened Def Con from 0.000154756 to 0.000154756
Heightened Def Con from 0.000154775 to 0.000154775
Heightened Def Con from 0.000154797 to 0.000154797
Heightened Def Con from 0.000154797 to 0.000154797
Heightened Def Con from 0.000154797 to 0.000154798
Heightened Def Con from 0.000154798 to 0.000154799
Heightened Def Con from 0.000154799 to 0.000154799
Heightened Def Con from 0.000154799 to 0.000154799
Heightened Def Con from 0.000154799 to 0.000154799
Heightened Def Con from 0.000154799 to 0.0001548
Heightened Def Con from 0.0001548 to 0.0001548
Heightened Def Con from 0.0001548 to 0.000154802
Heightened Def Con from 0.000154802 to 0.000154804
Heightened Def Con from 0.000154806 to 0.000154808
Heightened Def Con from 0.000154809 to 0.000154809
Heightened Def Con from 0.000154809 to 0.000154809
Heightened Def Con from 0.000154809 to 0.000154811
Heightened Def Con from 0.000154814 to 0.000154814
Heightened Def Con from 0.000154815 to 0.000154815
Heightened Def Con from 0.000154815 to 0.000154816
Heightened Def Con from 0.000154817 to 0.000154818
Heightened Def Con from 0.000154818 to 0.000154818
Heightened Def Con from 0.000154818 to 0.000154818
Heightened Def Con from 0.000154819 to 0.000154821
Heightened Def Con from 0.000154821 to 0.000154822
Heightened Def Con from 0.000154822 to 0.000154822
Heightened Def Con from 0.000154822 to 0.000154822
Heightened Def Con from 0.000154822 to 0.000154822
Heightened Def Con from 0.000154824 to 0.000154824
Heightened Def Con from 0.000154824 to 0.000154826
Heightened Def Con from 0.000155036 to 0.000155036
Heightened Def Con from 0.000155036 to 0.000155038
Heightened Def Con from 0.00015504 to 0.00015504
Heightened Def Con from 0.00015504 to 0.000155042
Heightened Def Con from 0.000155043 to 0.000155043
Heightened Def Con from 0.000155043 to 0.000155043
Heightened Def Con from 0.000155043 to 0.000155045
Heightened Def Con from 0.000155045 to 0.000155045
Heightened Def Con from 0.000155045 to 0.000155047
Heightened Def Con from 0.000155047 to 0.000155049
Heightened Def Con from 0.000155087 to 0.000155087
Heightened Def Con from 0.000155087 to 0.00015509
Heightened Def Con from 0.000155093 to 0.000155093
Heightened Def Con from 0.000155093 to 0.000155093
Heightened Def Con from 0.000155093 to 0.000155093
Heightened Def Con from 0.000155094 to 0.000155095
Heightened Def Con from 0.000155097 to 0.000155097
Heightened Def Con from 0.000155097 to 0.000155099
Heightened Def Con from 0.000155099 to 0.000155099
Heightened Def Con from 0.000155099 to 0.0001551
Heightened Def Con from 0.0001551 to 0.0001551
Heightened Def Con from 0.0001551 to 0.0001551
Heightened Def Con from 0.0001551 to 0.000155102
Heightened Def Con from 0.000155102 to 0.000155103
Heightened Def Con from 0.000155103 to 0.000155104
Heightened Def Con from 0.000155104 to 0.000155104
Heightened Def Con from 0.000155104 to 0.000155104
Heightened Def Con from 0.000155104 to 0.000155107
Heightened Def Con from 0.000155107 to 0.000155107
Heightened Def Con from 0.000155107 to 0.000155107
Heightened Def Con from 0.000155108 to 0.000155109
Heightened Def Con from 0.000155109 to 0.000155111
Heightened Def Con from 0.000155113 to 0.000155115
Heightened Def Con from 0.000155115 to 0.000155115
Heightened Def Con from 0.000155115 to 0.000155115
Heightened Def Con from 0.000155115 to 0.000155115
Heightened Def Con from 0.000155115 +to 0.000155118
Heightened Def Con from 0.000155118 to 0.000155118
Heightened Def Con from 0.000155118 to 0.000155118
Heightened Def Con from 0.000155118 to 0.000155121
Heightened Def Con from 0.000155124 to 0.000155125
Heightened Def Con from 0.000155125 to 0.000155126
Heightened Def Con from 0.000155126 to 0.000155127
Heightened Def Con from 0.000155127 to 0.000155127
Heightened Def Con from 0.000155128 to 0.000155129
Heightened Def Con from 0.00015513 to 0.00015513
Heightened Def Con from 0.00015513 to 0.000155132
Heightened Def Con from 0.000155132 to 0.000155132
Heightened Def Con from 0.000155132 to 0.000155133
Heightened Def Con from 0.000155134 to 0.000155134
